*=============================================================================
******************************************************************************
*      !!! THIS FILE CONTAINS XILINX CONFIDENTIAL INFORMATION !!!            *
*      THIS FILE MAY NOT BE COPIED OR TRANSFERED TO ANYONE WITHOUT           *
*      PERMISSION FROM XILINX, INC..                                         *
*                                                                            *
******************************************************************************
******************************************************************************
* Version: rx0.20
* Date: 08/15/06
* Content:
* corner --- TT/FF/SS/T_res/F_res/S_res
* transistor model ---
*   nmos/pmos/nmoslvt/pmoslvt/nmox/pmox/nmosmlvt/pmosmlvt/nmostox25/pmostox25/nmostox33
* wire model ---
*   m1wire/m2wire ..../m12wire
* resistor model --- (requested by Alan Ren on 08/14/06)
*   pysbres/xpysbres
******************************************************************************
* BSIM Version:   54/4.3
* HSPICE Version: 2005.03 or later; not compatible to Spectre
******************************************************************************
.LIB TT
.prot FREELIB
5A92J%s2 9>d:#<5:A9[Nf8
X256;>7/D%J[*K7jX(2x$$X++#9:2p!j3:7z
-61'$U9d![o\(x9%-p7,w(e1y$T#+h/f1l
!*$;5M2.o2 :)x:Z=-Q
H]=3g\#SZK_Iy]#+H/J2o7Jx((X$$x++m9y0
Z.[5'OXGaS2t-7XjZx#<:/B:97aW(E1Ek[
+t'Y=O$62d29a2p!3uY
e$;:1KwQN>\8#QR:/b:97Aw(e1e$T#+h/U2K[
+t'Y=O$62/Z=[*k7-x(992P!Jh:8X:Zx]ry
e$;:1KwQNGZ87Qw(E jL
!*$;5M2.oG[2=A1$X++)9:2p!j,:8x:zX;wx6
BIg8[9:CgAa.\(X9%-P7,W(E1Y$t#+H/F1L
!*$;5M2.o2T+9A2P!3Uy
e$;:1KwQN>\8=r(x91-pi#_:/b:;7Aw(e1)$]8
X256;>7/D%N[H0_7wCe12n7jX($x$$X++#7z
-61'$U9d!A#34:)x:Z=;Q
H]=3g\#SZK_z>_#SZK_z7<8
X256;>7/D%N[oY7/D%N[H0[
+t'Y=O$62d+OX*$62d+[V0
Z.[5'OXGaS: 3'a1$x++w9:2P!J,:8X:Zx;WX6
BIg8[9:CgAa#3U-7XjZx#<:/B:(7aW(E1Ek[
+t'Y=O$62d+[%2y7jX3uz
-61'$U9d![D\9f\A2.oG[+[%0
Z.[5'OXGaS2 ur-*$62/Z= jL
!*$;5M2.o2 UR-2Y7/Dz= Jl
!*$;5M2.oG[2[v*K7jX($x$$X++#9:2p!j3:7z
-61'$U9d![o*Pp)Y25!jw591-pi#_:/b:;]8
X256;>7/Dz] +$_#+H[u0
Z.[5'OXGaS:tu)XGaS:t3IZ
-61'$U9d![o*9-9d![o*Pp6
BIg8[9:Cg!6\#(:Cg!6=RQ
H]=3g\#SZK_I>,9(X91-PI#_:/B:;7aW(E1)$]8
X256;>7/D%N$o3+QR:'b:$F#+h/*2O7jX((Y0
Z.[5'OXGaO*9F\X*$X+PM6
BIg8[9:CgA #s(X91-7b#_:/B:;7aW(E1)$]8
X256;>7/D%N['Y]#uh/x[$X+PC9:2p!j,x6
BIg8[9:Cg!8%#(:/bH*[
+t'Y=O$62/T]7*k7Jx3'X$$x++#9:2P!J3:7Z
-61'$U9d![o*2-7xJzX#<:/bH57Aw(e1eK[
+t'Y=O$62d2xX*$X+PE6
BIg8[9:CgA8_7W(E1Y$t#b:/B:;7eWcE12477Q
H]=3g\#S%K[*k7Jx3UX$$x++#7Z
-61'$U9d![.QR:/b:97Awl91-pe#':'b:$c#RY
e$;:1KwQk>iY]#+h[U2O7jX((Y0
Z.[5'OXGaS\ -7X:Zx5W$9T2P!J,:QXjZx#.:7Z
-61'$U9da[#\(x91-7J#_:/b:;]8
X256;>7/D%][*K7jX(2x$$k#+h/f2-7-X(9]2K[
+t'Y=O$6g/2=a1$x+pm9:2P!J,X6
BIg8[9:CgA8=R(X91-PI#_:vX:Zx]W=9%-P7FWX6
BIg8[9:C>A8=R(X91-7j#_:/B:;]8
X256;>7/D%=M*$62/+[v0
Z.[5'OXG[S\9-9DA[#34y
e$;:1KwQN>i7<QR:/b:(7Awl91-pe#':'b:$c#RY
e$;:1KwQk>i7<QR:/bHS7Aw(e1eK[
+t'Y=O$62/2Oa2.Ogt3IZ
-61'$U9da[.K(:c>a6=rq
H]=3g\#SZK[h5_7W(E1t$t#b:/B:;7eWcE12477Q
H]=3g\#S%K[h5_7W(E )$t#+H/F1L
!*$;5M2.oG UR-*$62/+[%0
Z.[5'OXG[S\9F\a2.Sg 3'Z
-61'$U9d![.K=6)Y2p!jJ:8x=$X++#9l25!jwb9Y0
Z.[5'OXG[S*9F\a1$x+pm9:2P!J,X6
BIg8[9:CgA8%qr:/Bh57aWL91-PE#':'B:$C#ry
e$;:1KwQk>Zj_7w(e )$T#+h/f1l
!*$;5M2.oGT )Y2p!3u:8x=$X++#9l25!jwb9Y0
Z.[5'OXG[S*2-7X:Z=;W$91-PE7Q
H]=3g\#;Tr[*$x++w6
BIg8[9:%_l6_#+H/*0
Z.[5'OX  ,\ -91-pi8
X256;>7d[f][*$x++w6
BIg8[9:%_l8=R(:/bH5[
+t'Y=O$Y:=+OX*$Y:=+[V0
Z.[5'OX  ,*pP)X:z=-q
H]=3g\#;Tr$Oy7D[F] +L
!*$;5M2vD% 3'A:z=8
X256;>7d[f=ML<_d[f= Jl
!*$;5M2vD%TUR-*p!3q
H]=3g\#;Tr['y7jXC:z
-61'$U9p\3.S(:/Bj)[
+t'Y=O$Y:Oo=a2.oG[+9p\'y4 -9d![D\wOJE G#QwQN>!87d[7%KZY7/Dz=z
-61'$U9p\'9\(:CgA ##;T30f8_#SZK_z$Y:O<5[*$62/Z=X  )Z>+)XGaO\Q
H]=3g\#;T3PIy7/D%J$2vD4;7]A2.oG[29p\'y[T-9d![o*wOJE +.QwQNGil
!*$;5M2vD4k2)xGaS:t:%_f/)*(:CgA .#;T30;6_#SZKgI$Y:O<_$*$62d26
BIg8[9:%_Fv#\(:cGa #\woje '#\(qn>\8##;t3p;8#QszkGZ87D[7%kz8_/dZ=[0
Z.[5'OX  )z +)xgAs: +9P\'94 +)D![d\ :%_F/1\ -cGaA#\wojeU+#\(qngz8[
+t'Y=O$Y:Oo][*$62/T][2vD4;7][*.oG[2=x  )D$2=aGaS2t+9p\'ybT+)d!A.\q
H]=3g\#;T30I8_#SZK_I87d[7BEi8_/D%J$Z$Y:O<5$zy62/Z][2vD4kj][*.o2T+6
BIg8[9:%_Fv#34-9d![D\9:%_fV)\pP)D![d\9:%_Fv1\Pp)d![o\9:%_fVn\pP)D!a#kQ
H]=3g\#;t30Z7<QwQN>\8\#;T30f8=R(qn>\8\#;t30;8=r(QN>!8\#;T30x8=R(qngz>[
+t'Y=O$Y:Oo] +y7/d%j$O$y:oO3$H0_/D%J$o$Y:Oo5$h0_#SZKgI>7d[7%Ki7<QwQNGi>[
+t'Y=O$Y:O<] +y7/d%j$O$y:o<3$H0_/D%J$o$Y:O<5$h0_#SZKgI>7d[7BKi7<QwQNGi>[
+t'Y=O$y:oO=M*$62/t=M2Vd4;7=m*.Og[+OX  )d$+oAgAs2 U9P\'YB u)D!a#kQ
H]=3g\#;t30Z>_#szk_Z>7D[7bez>_/d%j[O$y:o<5[oY62/z=M2Vd4KJ=m*.O2 u6
BIg8[9:%_fV.k(:CgA .kWOJE '.K(QN>\6\#;T3P;6\qWqn>!6\#;t3pX6\QwQNGi>[
+t'Y=O$Y:O<]m*$62/T]m2vD4k7]M*.oG[2ox  )Z$2Oa2.Ogd2OX  )z>2oA2.o2TU6
BIg8[9:%_Fv#K=6)xgAs: UR-2Vd4;7=ml<_/d%j[O3+#;t3p;8\%y-cGaA#K=69P\'YB ur-*.O2 ur-0
Z.[5'OX  )z UR-*$62/t=ML<7D[7bez>,9(qn>\8\%Y:%_F/1\9f\AgAs2 UR-2Vd4KJ=ml<_/dZ=ml<[
+t'Y=O$y:oO]ML<_#szk_i>,9woje '.k=6)D![d*9F\X  )d$2oIPY7/D%N$o3+#;T3Px6\%Y-9D!a.k=66
BIg8[9:%_F/.K=6)xgAs:TUR-2Vd4K7]ml<_/d%j$O3+#;t30;6\%y-9d![o*9f\x  )Z>2Oipy7/dZ]ml<[
+t'Y=O$Y:Oo=7*$62/T=72vD4;7=7*.oG[+Xx  )D$+xaGaS2  9p\'yb  )d!A#Sq
H]=3g\#;T30zJ_#SZK_zJ7d[7BEZj_/D%J['$Y:O<5['y62/Z=72vD4kj=7*.o2  6
BIg8[9:%_fV.s(:CgA .sWOJE '.S(QN>\6%#;T3P;6%qSZKgIJ7d[7%Kij_/Dz]70
Z.[5'OX  )Zt )XGaS:t 9p\'94T )d![D*2:%_f/1*2-CgAa.sWOJEu+.S(QNGij[
+t'Y=O$Y:Oo*['y7Vxm'X8$dT5:*0 L
!*$;5M2vD4k9=7*$X+,)952 m'w9Bp0
Z.[5'OX  )D)2xa2)!-l:zX\w8#)<%Z
-61'$U9p\'9<T )x:zeYwS9_D:7<kO6
BIg8[9:CP\\_JQ
H]=3g\#;T0Pzy7/;t0x  rZ -9d  R8
X256;>7d[r%$*$6D[R9p\\9*(:CP\\[
+t'Y=O$Y:!o=[*$6D[R9p\\9\ -9d  R8
X256;>7d[r%$ZY7/;t0x  rZt+)XGVd$Q
H]=3g\#;T0Pz>_/;T0X  rZ u)D  r8
X256;>7D[R%[O3+qSoj42Vd$K+Oipy6D[R6
BIg8[9:%_mv#34-cp\\7d[rB[H0_/;t0z
-61'$U9p\\y*9-cp\\7d[rB$oY6d[r6
BIg8[9:%_mv.K=6)d  R#;t00i>,9(Q%_ml
!*$;5M2Vd$;2[V*.Y:!:%_M/.34-CP\\[
+t'Y=O$Y:!o=7*$6D[R9p\\9\2-9d  R8
X256;>7d[r%$'Y7/;t0x  rZt )XGVd$Q
H]=3g\#;T0P(8%qp:%_M/0\2-[X8$dT5:*0 L
!*$;5M2vD$;9]7*77d[rB2ij_3wS9_D:7<kO6
BIg8[9:%_4:Y\(:/BS)7d[IypF8_#+h:/2vDx5O5[*$X+i>9p\,8d>+)10
Z.[5'OX  U'K+)X:ZhVWOJC3/)\(:/bs)7d[Iy0;8_#+h:/2vDx5<_[*p[
+t'Y=O$Y:M;%$*$x+I>9p\,8do2)x:zHvwOJC3v1*(:/bs)7d[IypX6_jq
H]=3g\#;Td6U6_#+H:/2vDx5<3$*$X+i>9p\,8z$2)x:zHvwOJC3/N*((6
BIg8[9:%_4:Y\ -91-)h#;Td6 '#\(:/BS)7d[Iyp;8#Qw(e/s$Y:M;%kz8_JQ
H]=3g\#;Td6U8#qW(E/S$Y:M;bez8_#+H:/2vDx5<5[ZY7jX>:x  U'KJ=[*P[
+t'Y=O$Y:M;%$zy7Jx>:X  U';7][*$x+I>9p\,8d$2=A2p!vi:%_4:YBt+)10
Z.[5'OX  U'K2=a2P!VI:%_4:94t+)X:ZhVWOJC3/1* -91-)H#;Td6U+.\((6
BIg8[9:%_4:Y\pP)X:ZhVWOJC3v)\Pp)x:zHvwOJC3v1\Pp)x:zHvwOJC3vN\Pp)10
Z.[5'OX  U'K+[V*$x+I>9p\,8zo+[v*$X+i>9p\,8z$+[v*$X+i>9p\,8z>+[v*p[
+t'Y=O$Y:M;%$h0_#+H:/2vDx5O3$H0_#+h:/2vDx5O5$H0_#+h:/2vDx5O_$H0_jq
H]=3g\#;Td6U6=R(:/BS)7d[Iy0F6=r(:/bs)7d[Iy0;6=r(:/bs)7d[Iy0X6=r((6
BIg8[9:%_4:y\9-9p\,8d 3ix  u';7=M*$y:m;%EZ7<#;tD6 G#K(:%_4:y[ 3ix  u';j=M*$y:m;%KZ7<8
X256;>7D[iY0z>_#;Td6U8=RWojc3/)\9-9P\,8ZO+[V2VdX5<5[Oy7D[iY0;8=RWojc3/n\9-9P\,8Z>+[V0
Z.[5'OX  u';2oA2vDx5O] +$y:m;%Ei>_#;tD6 '.34:%_4:y[TU)x  u';'] +$y:m;%Ki>_#;tD6 +.34Y
e$;:1Kwojc3/.k(:%_4:9*pP9P\,8ZO2Oa2VdX5<3$h07D[iY0;6\qWojc3/1*pP9P\,8Z>2Oa2VdX5<_$h0[
+t'Y=O$y:m;%[H5_#+h:/2vDx5O3[H5_#+h:/2VdX5o5[h5_#+H:/2vDx5O_[H5_jq
H]=3g\#;tD6u8=-(:/bs)7d[Iy0F8=-(:/bs)7D[iY0;8=-(:/BS)7d[Iy0X8=-((6
BIg8[9:%_4:y\9f\A2vDx5O= J$y:m;%EZ>,9(:%_4:y4 3'x  u';'=ML<_#;tD6 G#3u:%_4:yb UR-*$y:m;%KZ7B8
X256;>7D[iY0z>,9(:%_4:9\pc9P\,8ZO+Oipy7D[iY0f8=-Wojc3/1\9F\a2VdX5<5[h57D[iY0x8\%Y-9P\,8Z>+[%0
Z.[5'OX  u';2oIPY7jX>:x  u';7]ML<_#+h:/2VdX5o5$O3+qW(E/S$y:m;%Ki>,9((6
BIg8[9:%_4:9*9f\A2p!vi:%_4:94TUR-*$X+i>9P\,8Z$2Oipy7Jx>:X  u'kj]ML<_jq
H]=3g\#;Td6 8%qW(E/S$Y:M;%ezJ_#+H:/2vDx5O5['Y7jX>:x  U';J=7*P[
+t'Y=O$Y:M;b['y7Jx>:X  U'K7=7*$x+I>9p\,8z$+XA2p!vi:%_4:9B  )10
Z.[5'OX  U';2xa2P!VI:%_4:Y4t )X:ZhVWOJC3v1*2-91-)H#;Td6 +.s((6
BIg8[9:%_4:9*2-91-)h#;Td6U'.s(:/BS)7d[Iy0;6%Qw(e/s$Y:M;bkIJ_JQ
H]=3g\#;Td6 T%qW(E%j$(#[0YX(/Y#;9\8AT[
+t'Y=O$Y:M;b2'y7Jxc'X8$dT5:*0 $Y<Y!K20
Z.[5'OX  U'Oo=a2P!5ly
e$;:1KwOJC3'9\(:/by*[
+t'Y=O$Y:M;3PIy7Jx>'Z
-61'$U9p\,84k2)x:zH-q
H]=3g\#;Td6fV#\(:/B)s[
+t'Y=O$Y:M;30z8_#+HUu0
Z.[5'OX  U'Oo][*$x+Ic6
BIg8[9:%_4:)Zt+)X:Zh-Q
H]=3g\#;Td6fV#34-91-;>8
X256;>7d[IyEu8=r(:/be*[
+t'Y=O$y:m;3pZ>_#;tD6Fv#34Y
e$;:1Kwojc3'9\9-9P\,84K+[V0
Z.[5'OX  U'Oo] +y73x(SZ
-61'$U9p\,84k2[v*$=++E6
BIg8[9:%_4:)dTU)x  u'oO] +l
!*$;5M2VdX57b$Oy7D[iYeU6=RQ
H]=3g\#;tD6Fv#3u-91-;>8
X256;>7D[iYeU8=-(:/BE*[
+t'Y=O$y:m;3pZ>,9(:%_4:)d 3'z
-61'$U9P\,84K+Oipy7D[iYeU8=-Q
H]=3g\#;tD6Fv.K=6)x:zi;q
H]=3g\#;tD6F/.K=6)x:zi;q
H]=3g\#;Td6fV#s(:/BY;[
+t'Y=O$Y:M;30zJ_#+H2F0
Z.[5'OX  U'Oo]7*$=+U(6
BIg8[9:%_4:)Zt )XhZbJQ
H]=3g\#;Td[487qW(E +L
!*$;5M2vDx I]x*$X+Pp6
BIg8[9:%_48U\ :)X:Z=RQ
H]=3g\#;Td[46##(:/Bh0[
+t'Y=O$Y:M+d[h07qW(E +P[
+t'Y=O$y:m+D[o$_#;tD[48=rq
H]=3g\#;tD[46=rw-91-7<jq
H]=3g\#;Td[46\#(:%_48U*pP6
BIg8[9:%_48u\PC9A2p!34(6
BIg8[9:%_48u\9f\x*$y:m+D[H5[
+t'Y=O$y:m+D$o3+#(:/bH0X8
X256;>7d[I=CZj_#Phs10
Z.[5'OX  U\M2xa27!y+y
e$;:1KwOJE![y\(QN>Z$Y:OZKPf8_/d%=Z
$$Y:OZKP;8_/d%=X  )2/o_[*k62d+Q%1L
!*$;5M2vD4D%B[*.oG :%_faSZO+)D![#8
_:%_faSZ$+)D![##;T3gA/n\(XCg!85-ry
e$;:1KwOJE![y*(QN>i$Y:OZKPf6_/d%]Z
$$Y:OZKP;6_/d%]X  )2/o_$*k62d2Q%1L
!*$;5M2vD4D%B$*.oGT:%_faSZO2)D![.8
_:%_faSZ$2)D![.#;T3gA/n*(XCg!65-ry
e$;:1KwOJE![y\ -cGa8##;T3gAV)\ -CgA8#8
_:%_faSD$+=aGaS\ :%_faSD>+=a1.O2 +Q%1L
!*$;5M2vD4D%B[ZY62/+=x  )2/<3[zy62/+=Z
$$Y:OZK0;8#qSZK[z$Y:OZK0x8#qrqngz85-ry
e$;:1KwOJE![y* -cGa6##;T3gAV)* -CgA6#8
_:%_faSD$2=aGaS* :%_faSD>2=a1.O2t+Q%1L
!*$;5M2vD4D%B$ZY62/2=x  )2/<3$zy62/2=Z
$$Y:OZK0;6#qSZK$z$Y:OZK0x6#qrqngI85-ry
e$;:1KwOJE![y\Pp)d![#KwOJE![y4 3iAgAs\9Y
8x  )2/o5[h0_/d%=m2vD4D%%KZ7<QRQNGZ>5-RY
e$;:1KwOJE![9\Pp)d![#KwOJE![94 3iAgAs\9Y
8x  )2/<5[h0_/d%=m2vD4D%BKZ7<QRQNGZ>5-RY
e$;:1KwOJE![y\9-%_FAsd 3ix  )2/o3[OyY:OZKPf8=RQ
$9p\'oG;'=M*vD4D%%=Z7<#;T3gAVn\9-%_faSD>+[V0
Z.[5'OX  )2/<=m*Vd4d%b[h07d[7N>u'#K(OJE![94 3iz
$$Y:OZK0;8\q;T3gA/1\pP9p\'oGkj=M*vD4D%BKZ7<8
X256;>7d[7N> 6=r(QN>i>7d[7N> '.34-cGa6\8
_:%_faSD$2[V*.Ogtu9p\'oG;j] +Y]/Dz]Mw5]8
X256;>7d[7N>u6=r(QN>i>7d[7N>u'.34-cGa6\8
_:%_faSZ$2[V*.Ogtu9p\'oGkj] +Y]/Dz]Mw5]8
X256;>7d[7N> 6\Q;t3Gav.34:%_faSDO2Oa  )2/o3$h0[
aWOJE![y[TU)p\'oG;'] +$Y:OZKPx6\q;T3gAVn*pP6
BIg8[9:%_faSZtu)P\'OgK2[V2vD4D%BEi>_d[7N>u'.34Y
8x  )2/<5$OyY:OZK0;6=RWOJE![9bTU)p\'oGkj] +l
!*$;5M2Vd4d%%[O3+qSZK[O3+#;t3Gav)\9f\AgAs\9f\z
$$y:ozkp;8\%y-cGa8\%y:%_FAsd>+oIPY]/Dz=ML<5-RY
e$;:1Kwoje![9\9F\aGaS\9F\X  )2/<3[o3+Qszk[o3+8
_:%_FAsz$+oIPY62/+oIP$y:ozk0X8\%y-7d!A#K=6q%1l
!*$;5M2Vd4d%%$O3+qSZK$O3+#;t3Gav)*9-cGa6\%yY
8x  )2/O5$o3+Qszk$o3+#;t3GavN*9-7d!A.K=6q%1l
!*$;5M2Vd4d%b$O3+qSZK$O3+#;t3Ga/)*9-cGa6\%yY
8x  )2/<5$o3+Qszk$o3+#;t3Ga/N*9-7d!A.K=6q%1l
!*$;5M2vD4D%%['Y62/+Xx  )2/o3['y62/+xZ
$$Y:OZKP;8%qSZK['$Y:OZKPx8%qrqngzJ5-ry
e$;:1KwOJE![9\2-cGa8%#;T3gA/)\2-CgA8%8
_:%_faSZ$+xaGaS\2:%_faSZ>+xa1.O2  Q%1L
!*$;5M2vD4D%%$'Y62/2Xx  )2/o3$'y62/2xZ
$$Y:OZKP;6%qSZK$'$Y:OZKPx6%qrqngIJ5-ry
e$;:1KwOJE![9*2-cGa6%#;T3gA/)*2-CgA6%8
_:%_faSZ$2xaGaS*2:%_faSZ>2xa1.O2t Q%1L
!*$;5M2vD4D%%2Zj_#+h'j227:V;92uv[
+t'Y=O$Y:OZK0(8%qW(E/v$(#[0YX(/Y8
X256;>7d[7N> t.S(:/bJ97(wtm62t9dq
H]=3g\#;T3gA/0*2-91-)E#C:j.3$0Z;y
e$;:1KwQ%_o'8QPh/z
-61'$U9p\>)';+)d  \45:%_O'8DO+)D  \45:%_O'8D$+)D  \45:%_O'8D>+)D  \45y
e$;:1KwOJMF:9\(Q%_o'8#;TOe3/)\(q%_O'8#;TOe3/1\(q%_O'8#;TOe3/n\(q%_O'88
X256;>7d[U36 6_/;toE3$Y:97YPf6_/;TOe3$Y:97YP;6_/;TOe3$Y:97YPx6_/;TOe3L
!*$;5M2vDKo;B$*.y:97yx  \45<3$*.Y:97YX  \45<5$*.Y:97YX  \45<_$*.Y:97YZ
-61'$U9p\>)';+=AgvDKo;9p\>)';7=[*.y:97yz
$$Y:97YP;8#qSojmf:7d[U36 +#\(Q%_o'88
X256;>7d[U36u8#QsOJMF:7d[U36u'#\(Q%_o'88
_:%_O'8Z$+=aGVdkO;9p\>)'kj=[*.y:97yz
-61'$U9p\>)';2=AgvDKo;9p\>)';7][*.y:97yz
$$Y:97YP;6#qSojmf:7d[U36 +.\(Q%_o'88
X256;>7d[U36u6#QsOJMF:7d[U36u'.\(Q%_o'88
_:%_O'8Z$2=aGVdkO;9p\>)'kj][*.y:97yz
-61'$U9p\>)';+XAgvDKo;9p\>)';7=7*.y:97yz
$$Y:97YP;8%qSojmf:7d[U36 +#S(Q%_o'88
X256;>7d[U36u8%QsOJMF:7d[U36u'#S(Q%_o'88
_:%_O'8Z$+xaGVdkO;9p\>)'kj=7*.y:97yz
-61'$U9p\>)';2XAgvDKo;9p\>)';7]7*.y:97yz
$$Y:97YP;6%qSojmf:7d[U36 +.S(Q%_o'88
X256;>7d[U36u6%QsOJMF:7d[U36u'.S(Q%_o'88
_:%_O'8Z$2xaGVdkO;9p\>)'kj]7*.y:97yz
-61'$U9d  \\/-[b:l
!*$;5M2vDK %%[*.y:9+kx  \\/o3[*.Y:9+KX  \\/o5[*.Y:9+KX  \\/o_[*.Y:9+KZ
-61'$U9p\>#Gk+)d  \\/:%_O8SZO+)D  \\/:%_O8SZ$+)D  \\/:%_O8SZ>+)D  \\/y
e$;:1KwOJMZ[y*(Q%_o8s#;TO[AV)*(q%_O8S#;TO[AV1*(q%_O8S#;TO[AVn*(q%_O8S8
X256;>7d[U=>u6_/;to[a$Y:9+K0f6_/;TO[A$Y:9+K0;6_/;TO[A$Y:9+K0x6_/;TO[AL
!*$;5M2vDK %%[ZY6d[U=>2vDK %%EZ8_/;to[al
T#;TO[AV1\ -CP\>#gWOJMZ[yb +)d  \\/Y
e$;:1KwOJMZ[9\ -cp\>#GwOJMZ[94 +)d  \\/Y
8x  \\/<5[zy6D[u=>2vDK %BKZ8_/;to[al
!*$;5M2vDK %%$ZY6d[U=>2vDK %%Ei8_/;to[al
T#;TO[AV1* -CP\>#gWOJMZ[ybT+)d  \\/Y
e$;:1KwOJMZ[9* -cp\>#GwOJMZ[94T+)d  \\/Y
8x  \\/<5$zy6D[u=>2vDK %BKi8_/;to[al
!*$;5M2vDK %%['Y6d[U=>2vDK %%EZj_/;to[al
T#;TO[AV1\2-CP\>#gWOJMZ[yb  )d  \\/Y
e$;:1KwOJMZ[9\2-cp\>#GwOJMZ[94  )d  \\/Y
8x  \\/<5['y6D[u=>2vDK %BKZj_/;to[al
!*$;5M2vDK %%$'Y6d[U=>2vDK %%Eij_/;to[al
T#;TO[AV1*2-CP\>#gWOJMZ[ybT )d  \\/Y
e$;:1KwOJMZ[9*2-cp\>#GwOJMZ[94T )d  \\/Y
8x  \\/<5$'y6D[u=>2vDK %BKij_/;to[al
!*$;5M2.y:Fz)1-p[
+t'Y=O$Y:fZ=a2.y:Fz6
BIg8[9:%_/a.qWQ%_/A[
+t'Y=O$Y:fZ=[*$6D[[nZ
-61'$U9p\xo* -9d  -2q
H]=3g\#;T-gzJ_#Soj3!L
!*$;5M2vD0D2XA2.y:Fz6
BIg8[9:cM/W%x((e1el
!*$;5M2.\0v ba:Zx]Q
H]=3g\#sU[E4YX+P(6
BIg8[9:cMH'9Q+h[10
Z.[5'OXg>B4m-/bJp[
+t'Y=O$6Ku7BA:zBjq
H]=3g\#sU:E4YX+i(6
BIg8[9:cMs'9Q+h:10
Z.[5'OXg>8d=I)U0
Z.[5'OXg>8d=<) -9[
+t'Y=O$6*:I)1-pi8
X256;>7/93daG>-T2i6
BIg8[9:cMJ,_/933C0
Z.[5'OXg>Jx(Qo F,[
+t'Y=O$6KiI)do7)xq
H]=3g\#sUiC*.\3oI6
BIg8[9:cMy,_/933C0
Z.[5'OXg>ix(Qo%F,[
+t'Y=O$6KLI)do5)xq
H]=3g\#sU(C*.\-oI6
BIg8[9:cMHpuQsU:E4l
!*$;5M2.\3pi)DO))XQ
H]=3g\#sU[%4Y6K5ORC0
Z.[5'OXg62z((e )l
!*$;5M2.\3K-Cm/w%ZQ
H]=3g\#sU'0*.\3o<6
BIg8[9:cM)/_/93300
Z.[5'OXg>Hz(Qo F/[
+t'Y=O$6K4<)do7)zq
H]=3g\#sU20*.\3o<6
BIg8[9:cMT/_/9C300
Z.[5'OXg>>z(Qo%F/[
+t'Y=O$6K,<)do5)zq
H]=3g\#sU[1uY6Ki7Bz
-61'$U9DO7=Z(qO/f/[
+t'Y=O$6KPCBAg>8d=<6
BIg8[9:%_462qS2<c0
Z.[5'OX  Ukp-Cmh,[
+t'Y=O$Y:Mu'aG>bXQ
H]=3g\#;Tdm)y6k3i6
BIg8[9:%_4>hqSu:c0
Z.[5'OX  Uk4-Cm+,[
+t'Y=O$Y:Mu2aG>$XQ
H]=3g\#;Tdmty6kji6
BIg8[9:%_4>>QsUsC0
Z.[5'OX  uK,-cMe,[
+t'Y=O$y:mU[1*.\3+I6
BIg8[9:%_4>=3(Qo H,[
+t'Y=O$y:mU[%*.\3uI6
BIg8[9:%_u62Qs2<00
Z.[5'OX  9KP-cMH/[
+t'Y=O$y:kU'Ag>Bzq
H]=3g\#;tBM)Y6K3<6
BIg8[9:%_u>HQsU:00
Z.[5'OX  9K4-cM+/[
+t'Y=O$y:kU2Ag>$zq
H]=3g\#;tBMTY6KJ<6
BIg8[9:%_u>>QsUs00
Z.[5'OX  9K,-cMe/[
+t'Y=O$y:kU[1*.\3+<6
BIg8[9:%_u>=3(Qo H/[
+t'Y=O$y:kU[%*.\3u<6
BIg8[9:CP\>S*(3E10
Z.[5'OX  \gt2<aGVdk/26
BIg8[9:%_O[.kp-CP\>S*Q
H]=3g\#;TO>I>bqSojmA6[
+t'Y=O$Y:9%]m)y6D[uK$0
Z.[5'OX  \gtu:aGVdk/26
BIg8[9:%_O[.k4-CP\>S*Q
H]=3g\#;TO>I>$qSojmA6[
+t'Y=O$Y:9%]mty6D[uK$0
Z.[5'OX  \GTUsAgvDK/26
BIg8[9:%_o[.K,-cp\>s*q
H]=3g\#;to>i>=j(Q%_o[.8
X256;>7D[uK$O7=qSojmA6[
+t'Y=O$y:9%]MH5_/;to>il
!*$;5M2.y:9IyAHzX8
X256;>7d[UD6iE_/;toC3l
!*$;5M2vDKm;o *.y:9Iyz
-61'$U9p\>u'9C)d  \x5Y
e$;:1KwOJM4:\;(Q%_o,88
X256;>7d[UD6o)_/;toC3l
!*$;5M2vDKm;ov*.y:9Iyz
-61'$U9p\>u'9))d  \x5Y
e$;:1KwOJM4:\U(Q%_o,88
X256;>7D[ud6O*_/;TOc3L
!*$;5M2VdkM;OF*.Y:9iYZ
-61'$U9P\>U'93/aGVdkM;6
BIg8[9:%_o,8KP3)d  \x5Y
e$;:1Kwojm4:\3U-CP\>U'Q
H]=3g\#s.)xhZx$Q
H]=3g\#sOR[*$x++(/42.YX -910
Z.[5'OXgv,*(:/B:Px$Wq%cIy7JQ
H]=3g\#sOR[ZY7jX(/1m$6dm+=A2P[
+t'Y=O$6d=2=A2p!j+(0xgvu* -910
Z.[5'OXgv,\9-91-PxJ!:CP48\qW(6
BIg8[9:cpL8=r(:CPl8\#Sod[h0_#Sod[OL
!*$;5M2.Y%tu)X:zXj+r9d ,.K(:/z
-61'$U9D 3.34-9d 3.KwQ%Ci7<QwQ%Ci>[
+t'Y=O$6d=+oIPY7Jx(/1M$6DM+Oipy7JQ
H]=3g\#sOR[H5_#Sor[O3+#Sod[h5_#Sod[O3+8
X256;>7/;F]ml<_#+h/1:\7/;I]ML<_#+Y
e$;:1Kwq%izJ_#+H/1:\7/;i=7*$X8
X256;>7/;F]7*$x++(/42.YXt )X:l
!*$;5M23#K#<)x1r$<6#8f(=ef'M7z
-61'$U9Ii>4z(:7tyt3]_#*\e45;RY
e$;:1Kwf]ML<4zw-9Y=90.,$(25;cE3x6
BIg8[9:cp462Qw*/B:sr8
X256;>7/;iO *$X++30z
-61'$U9D ,\-(:/b:pR8
X256;>7/;iOu*$X++(0z
-61'$U9D ,\V(:/b:pR8
X256;>7/;iOV*$X++(0z
-61'$U9D ,\5(:/b:pR8
X256;>7/;iO**$X++(0z
-61'$U9D ,\y(:/b:pR8
X256;>7/;iOF*$X++(0z
-61'$U9D ,\3+-91-Px$Q
H]=3g\#sODMH7_#+h/1ml
!*$;5M2.YX93'a2P!J+R6
BIg8[9:c6a8_v4:C6A6_V4y
e$;:1KwqY>zJ_V4:C6A6%qIP6
BIg8[9:c6ud#/ <)fH$6'Ka]Dz/_3p(6
BIg8[9:cC3p#Q+h'%m$6w/3=a:Zx8
X256;>7/M;/$*P!-UR9d][=*((e10
Z.[5'OXG,8J +)1-5b$Wq4>h8#q+H/Z
-61'$U9D4:x* -/Bj5r#S.K I8_Jx(6
BIg8[9:cC3p#S((e%J\7/\%[['YX++Y
e$;:1Kwqd6:6%q+H'%M$6w/3]7*P!JQ
H]=3g\#OZdX*$x+U>9dFA,#(:/b:SR#s7NIi77Qw(e1)\[
+t'Y=OL
T#; MeG864W-910
o7d;fkdZ.)#(:/Z
$$9cdu5Dz.)#(:/Z
$$Y92a/Dz.)#(:/Z
$$YX#+xDz.)#(:/Z
$$Y%t9/Dz.)#(:/Z
$$YDY ]1G864W-910
o7d\Mc[g'7qW(6
:2vy92(c[g'7qW(6
:2vy92Cc[g'7qW(6
:2vy92(DdZ.)#(:/Z
$$YDY 'cG864W-910
o7dy<57g864w-910
o7dT6B='.#/o:)x:L
T#;;b;G864W-910
o7d$zBdZ.)#(:/Z
$$S2K0C[G'7qWx'bH7B<63/Y0
o7GD<RdZ.)#(:7 -7>y)*[11L
T#/,C[G'7Qwx[b)t3;RY
8xAF9XS+Ce2y77P9! :K[
aW%.04A6\s79a2KJ+P9! :K[
+t'Y=OL
T#; MeG664W-910
o7d;fkdi.)#(:/Z
$$9cdu5DI.)#(:/Z
$$Y92a/DI.)#(:/Z
$$YX#+xDI.)#(:/Z
$$YDY ]1G664W-910
o7d=2*1g664w-910
o7d\Mc$g'7qW(6
:2vy92(c$g'7qW(6
:2vy92Cc$g'7qW(6
:2v+z$ c$g'7qW(6
:2vy92(Ddi.)#(:/Z
$$YDY 'cG664W-910
o7d!(c$g'7Qw(6
:2v.$+Q]dF$_#+y
8x :9HS2Ce2y7jq
$9p;A9/TQ3x*$x8
_:%$]T%[S2Ce2y7jq
$9>!/m/TQ3x*$]3x)I%(==Jry
8xAa9%S2Ce2y77Ph[hVt33+x6
:2[*/TQ3x*$]3xm*\)k[
aW%.04../o:)x170.p(7Z
$$SLKinDI.)#(:7u(==Jry
eMDv0%w+9[oW9#=9\2l$_#4>6
:l>4\W-9*(=XjL:rm;'7QwMe1Ht3j+)9Coh##(:[BjT3J+w9CoG)#(:2B:70.hy
8-(:9CV+9A2)!-w[w[m84Sw-9 261'$Uk;]Y73wUm3oWy#(:/Z
$[1*90%x*$b##ZKmdV7Qw398!x\t;:)Xh$O<vuMP2Y7jq
$%8d>MDW-9%2:yz90%x*$x#5[MP#>MD(:/X3a1s)uMP*$x8
_2*6oWy#(:[X;[#_KuMP*$x#2;=NU>MD(:/Z
$j#t9:)Xj07SV7*x*$]3x#I25Px]_ox.f.#/OX97d'.#(:7 -0XU)*/1eOySV7c[g']#203m2Y73X#i25pX]q
$*$U:M4W-9U-;7x#+Xx*$].4H'1+90.+3/: ,4\2q=Dfk7%#+xX*$]3X9!1:;3rX(*\e-J,k!NM;.#/ox9il$_#Hhujyt3jPW6
:437Qw(9IL87Qw39CL87Qw(efe$,XW-910
oUXW-9v(=X3L:rcz$_#p:dcz$_#+HI1Y97%mf9A2p[
aMirX*$x#=FKX*$<+39!1h(7x=%9A2p7%m%9A2p[
aMiKX*$x#=ir>2Y7jwIDIa$_#+:%iA$_#r3E h(0.+(S: V,gS+Ce1L
Tdm%9A2p74=:)X5s0.+(SXf,7Qw(9EiG8Sw-9 0
o%TO;*_2Y77Ph$v(=Xj,$%7D'6\s77x 3Scd:)XhZ<y)*/1vL
T92A/x*$]Jxm[%$V+s*(C[G']#\39a2P!-l):F2mb#(:!1-pX3+#[x]S7qWX! :Z$-_o4uG864ry
8,)x7QwCe*e57x+:)XYZ>Jhw*\:P>#;6x12Y77+h$/HOydy /dZ.)7wO\7H$_#+HU/hs[
a;6x%2Y776(e1:7=-i$%pPjB/ Q3Y2v+S+I9A2KX++MuU)9Td;6X14.#/ox9PpJ=XW-9 h*>3+(9PpJbXW-9y:Zxy,P: $VY92cdDz.)7Q
$%0MX7Qw(e1V(H#9!=-2Y7;X(/U2<m:[f9A2=>+uC*\:7X#;6x$:$_#rwE1S)0.+($: V+st(C[G']8
_O\7i77Qw*[b:)J<6([123.<+:)X17!V+(I25Pxy_or$(P6\S77Xl3.<+:)XhZ<Jp)*\:PE#MF]2:$_#jH21);0.+((Z
$3.<F:)XjZbV4>*\:P>#=F]2/$_#UHU%E*0.+3/X43.<f:)X+Zh5jc*\:PE#O,9A2;0.+(sz
$8o[299A27!-L981Jp7\;9]x*$$<_([*289dw-9 (OX-+:];787Qw(e1+l
TG;<kx*$x++(: Ss<#/ob>/$_#+H/1:*$#/ob> $_#+:K8'$_#UH225PxuQ
$\.\ 7Qw*/b:9<Y4:=_;[%T5:)X:Z=ypw[X(J1JW-91-pX;iM/v2t%[F:)X:L
T9[[9A2==#!(9A2p!juEsU2\1#(:'BS5$3)*/ h$r0W-9 -0e]49!1H*[
a!%9A2*!jHC*\:7=#Y<572Y77P>i*HpTdy<57g864R:]-Ug%#(:7Vj)!;I$%$p/1sS+Ce1$1jw-91-7x]I>6
:;a9#(:71-5>upe8P;a9/ q3y2g=#(:/xlgOZ(X/: gOZS+Ce1$1-W-9 2xX#(:UB:P>R)*/1tL
T0P:)XhT3JU(9,(j1#(:/B:5b-j#9I]t%[w-9\:zX3PMiv2,g<2'9A2p!jPC6
: ,O#(:! (=xJ,:%c/$_#+:]>l>7Qw(e*y$.D#[r>h$_#lHI25PxyQ
$]P7X,gU:)X:Zx3I:]P7X,gf:)X5P!3Uc9p3WRSw-91-(J#t65g2Y7;X(iU+l
Td)fX=2Y7jX(/ 269GF9[x*$$+4mI2$Px]W2B>/tB#(:/B:Px3p>$X\68T! 9A2p!jP((/0
o.D# bX*$x++(/ 26yC2<%x*$j+3c(XIV4sKF9A27!jP396ud7QwE6
:3V9XW-9 T5!U3:YPU,\c :)Xh)!JI#96 ,\C :)X)Px#5<dm787QwM/10
o.'MZ9A27!j4('xI:U0W-912,8#(:[X;3.H$(9A2S0.+($z
$G,**'[x*$j#f9x=:$_#p>EV+$12#orX*$b+l3S25PxyW[N8 37Qw3ehV(0A+((z
$[oC;f9A2p!;w9N8 37Qw(ejT0>#$!n3;[S#(:/B:7x-W[wG/GsGw-91-pXUup6
:AHO0$%KX*$=+pc:XzHO0$%KX*$b+3(:X;HO0#+\X*$x++3UVt$-cd[W[p$_#+H/1S7I8
_%wG/h#9w-91-pX3w9wG/h#9w-9 -77\#z-8Z<7QwC9=7As#(:/B:7x5hy
8I;hoGw-9\HzH-)*/1+$-cd%9A2p!j+CixAHOgW-91-pXjuCuU2G42kO9A2p!jP36
:/HOZ;:)X:ZxJU39>7A9dw-91-7<ri:=8![7Qw39$D'0dD99A27!j+M6
:IHOg;:)XjZ<#  Me2Y7jX#'z
$[ozV:)X1[OZvq=Dfk7GDOmx*$]gd<MDz.)7W%N3D$_#p9!1h77GDORx*$]gd<rDz.)7Q
$KgU37QwxkGu36\s77xA3S#(:[25PxuW%R22Y7jX)9>\$_#+y
8>]G.*$<9A2S!]w6J3a<7Qw*[x;[Y<W-91-)7KV!=x*$E+U(UZ
$8m:[:)XjZjyp:\.\ S9W-9\:zX5,Y
8,'77Qw*/bJ)J5u:d,'77Qw*/b:pB#\ [i2Y7.3hi s90.+((x]Jb#(:!1-Ph3lP:Z
$3gSu:)X:ZxJp3UF+$uW2C9a2=x++(:*j)I#! *x*$33X('xL\%<w-91-P<JlPUZ
$\13w-912\-3w-9 -5e3)*/ V$,$f39A27!vu9!1H;7$/39A29!YiC*\:7X8
_f0>H$_#UH/VY(0.+3[XI:%#(:IB)57[2:)X50j3+#9C;j7Qw(6
:\8Mc90%X*$=#2+M8OwY#(:[Xzw4[W-9U-)B-)$//H$#T#[9A2)!v,981J0[
a 0W>2Y7;X#u2$pXYw9ox*$h3+(/1:P7[[:)Xh$0:W-91-;X;q
$4_2Y7jw =.7G7Qw3ev2j#t#[9A2S!rw+X[Dh7Qw36
:</9#(:'B:(h<6(/J2F9XK:)x)z>;)*/ J$#lk:)xHzHjw!.7>/dX;-91-Px;I>IZ
$h*S*<y2PY7jX(/%J5<#f6bX*$=3xP(XfF-9K:)Xh$.0K:)X:Z$uQ
$K#U$_#r%.Dz.)7WU.02Y7jXM2xIX9XK:)X:ZE]W%.04/7Qwxk#u,6\s77z
$>*zm<9A2p!3w2-04A9#(:/BE;7G8<DGu$_#r%.04a6\S77XOF9Xd<9A2p!vLY
8$//u2;:)X:ZE]W%.04Ay#(:7></U2S+Ce1$\LKinP2Y7jX>sx'6-#(:/B:P=;Q
$x><$_#+H/1:*E-W ]3u,7Qw(e1:57S/,BC2Y7jX(/1H(J#22-04a7Qw(e1:)B8
_ k#u,o#(:/B:Pxylm9E'h9#(:UBS;x5Q
$%mAa7Qw3ej(=XjJ:%mAH7Qw3*\:pi#;i.X*$x8
XUmp(37*W2o.u$,<Y9rX*$<VQ
$rm787QwW*\:p>#=u5e2Y7;X([25pX5wIo8Z$_#pH'25PxuWIo=F$_#hH/ (=$8
_6*6uhm\w-9/-570#+0[7j7Qw39$;:1K/A4A277KV[o. $_#+y
8>;6\t;:)Xj$42/uMP2Y73w!N3oWy#(:[X!TMkvo9A2p[
a;!MmdV7QwC96 /\t;:)X:$80vo<mdV_#+:Yg;J0kvo)X:L
T*);o. $_#p:5>z_9kvo)X:$%' 4bmdV_#+y
87ZW\#(:'V2jm4):)X15!349!1:;tD203DI.)7W MeI$_#R3ej+90.+((: jm4s2cE1$%TOu9A25!3J9!1:;[
a)2b6d'7QwMef2,4\2:)X1=j+h>U25Px]_od8zJ6*S77XlH#sW-9Y5*!;+E*\:pe.P9!h[/429'c$g'5;R:RI2y7.pH/V(=x34y
8CL$_#+:riz$_#+H(1+*7x=+9A277%m:)X:L
Txm:)X57!R49!1h97%m+9A2p!],E9C487Qw39I437Qw(6
:4,,#(:/Xl3S#(:!J-*0.p)9CL[7Qw(9I4[7Qw(6
:4,S#(:/Xl,,gW-912,u%/:)X:$Y%/:)X17!]Uc*\:P>a;or>G664ry
8EL$_#6m*\:P>#Oi9A2p74T'y72Y73wOD>*p[
a2036( 7Qwx[bsS0.+((: jm4s2cE1$Y%/!nX*$=+I)$25PxyQ
$\7>P7Qwx!1-5>j3$%-'dX/TQ3Y2M=#(:/Bj;h;W.'x*$3Jx([/:57W3:)X1=j+3(:: mj/tq3y0
oG;f:)XjZ$3h:d12Y7jwO\7:$_#r(E%:(ha;o\7:../OX9PpJ=#(:/b:*>-iY
8pPjB#(:7\:Zx3p>': V+sUq]Dfk7dy /C2Y776(e J5Td;6X14../ox9PpJ=XW-9uE(xJ+(9PpJbXW-9y57tD;6x%4../OX6
: /r0W-91-5J;3:O8z<7Qw(ej)0<#Y0j_l$_#6eEuYT3J+#9PpJ.JW-9y)Zh]h9!1:9]8
_O\7i77Qw(ehs$,*)(9A2K=<6('1$v,*)(c$g']#=f]2:$_#Phu/yt3j+E9iIT-#(:'b+7H<6(/f0
o)LW-9f(=XjL:=g;J0#(:[2$PbJW+%2i$_#j981h(7\kO9A270A+C/z
$6/C :)X:$SDK%9A2p7G;<k32Y7jw%%0av7QwWe%V*0.+(iz
$[4Sw-912<m:[:)X5P!J,mI*28D[/ m62Y7jX>ix(J1JW-91-p$]JW6
:(J10W-9\:zX-L)uxp -#(:! 2\x#(:71-pXUL)$\ \X/TQ3Y2\1#(:ibH)=<6([10
or0W-9 -;XU)*/%:$rgW-9*-90.+3'xP/1Sw-9yjsbV+(!Pp/1sS2Ce1$1JW-9 -Sirq
$]=!/7Qw*/bH*H3w'[x*$x#tR/a1P3DtR/DI.)7W''x*$=#$zBx*$]jXCi*VOy[D<c$g']8
_[/x*$x#f39A290.+(ix]T%[W-91-pB#t.*7;$_#r(E1:PbVjP8PIm0s$q]Dfk[
a;inX*$33xm'%(=xJl:%c/$_#pH(HYT3J+#9$a3\#(:/Bh;<-W2%8/3s3w-9*-;<<6(/h0
o.D#[r>j$_#p9!1:07*;!-Iax7Qw*/b+$Y'vRxX*$x+UP$ 26+[D:)XhT3Jp(6
: T,s$:)XhT3JU(9I t,S$:)X:ZxJUP'*269GF9[x*$$+Im22$Px]W2B>/tB#(:/B:PxJpeIZ
$ .'VrXx*$x++(I1:*7*;!X02Y7jXC'fe$.D# bP2Y73X(:xIV4sKF9A27[
a5<fX*$]y_oY0>../OX96 /U#(:7 Hp!r_)/9uhoK$Q]dFK7';<DM787Qwxuj-)<7w;%cOH##(:u1:l
T'kIo8Z$_#3(/XI:U2W-9 -0=;w2Yc/$_#+:d62Y73q
$5iID1JW-9%-7H<6(/h2G,**'[x*$x++w93(j1jw-9 J$12#ORx*$=+4)s25pXYwf5GuY]j_O5Gu../ox6
:/a4D=:)XhZEJI981:;7GD!%I2Y7jX(/f)(<#)ZWPl$_#+HSFEs7[#z-=a[7Qw(e1H7<]q
$-8!X1g/:)X:ZxJhw2 2[42F'k>2Y7jXp$*2842F'k>2Y7vXM(j2G42F!=-2Y7jX(/*Hl
T0#z-8Z<7Qw(e1:5Jvw%wG/h#9w-91-pX3LM'x(HO0#+\X*$=+h3$XzHO0#+\X*$b+l>UZ
$G42/:)X:ZxJh3IX/HOgW-91-pX3iM[xAHOgW-91-pXj,)ix;HOZ;:)X:ZxJ4#:F0
o-cd<%X*$x++(/ +9=#/!n0 $_#+H/uYPI# !n>2Y7jXW(%+$.TO9%g($_#+H( tL
T*#zkp2Y7-w+X.F$_#pH2Z
$[ozV:)X1[OZvq]Dfk7GDOmx*$]gd<MDI.)7W%N3D$_#+:Kg 37QwxkGu36*s77z
$[oz=:)X1[OZ=q]Dfk7G=%9A270.+($xA30#(:/BY$S:W-910
oSw$2]=U$_#3H'Xp -gY:)X577[/O*x*$x+Uw/F2>mC :)XhP[
a 0j_2Y7-XW:/2<m:[%\x*$3Jx(:u0
oGsp:)X5P!-4w[X]J=%W-9\sz<3i9!1:;7W2C9A2=X++C:1T$rs):)X57!3h>6
:Mg=#(:!u-;>-)*/ h$r0p:)XhZ=Rh9!1h;7$/39A2==++C*\:7X#t;xX*$33+PEJ0
o1sW-9 :pXjq
$j[dH\T;:)Xh$%\v!O. $_#p:=.7g7Qw)e V*0A+>/xzw40W-9 -00A+Ciz
$8mC/:)XvZIR)$/1E$0kW-9/HpXj+(/x; 7Qw392\$_#+H( vL
TW[:)X:$%\v!5X*$=+4:x[dH-#(:UB+$#s 0WX*$=8
_,B02Y7vX3i25pXYw,BCu$_#pH/257j# ,Bx*$=++p98<j/z[I%A2p!j+Miz
$h*S*<y2PY7jX(/%+$-9K:)XhP!yW7.3P/7Qw39$//7Qw(ejyl
TG8<9A2Ksls2cE1$\lk:)x:zJ-w2-04/7qW(EFE$slkIBx*$]G8<Ddi.)7q
$O#U,9#(:/Bh$.0Kin02Y7jX#(xAF9Xd<9A2KslkINdi.)7wu.04a9#(:/bV7[
at[bc!V7Qw(efe$SLKinP2Y77/,BC!../ox9m</U2;:)x:z>3w ]32y7Jx(/ +L
TS/,9A2p!j+(sf+$%*f<dX*$x++(:*2jslkI9A20!U49!v2J.0KinX*$X++(/v0
o%g8<dg2Y7jX(/1e5$#O W02Y7rX3'v+l
Td9%Nx*$=+h9!1:(7d9%wx*$=<6(/*2vulw-910
Z.[5'OX JM4S+r-G'_JQ
H]=3g\#K!nm;.#%Yq3a:L
!*$;5M2vuC  c[L<64((6
BIg8[9:%i78%/ F\Dfyx8
X256;>7dy F1g8,9s7)10
Z.[5'OX mj/ F\Dfyx8
X256;>7d;6X1g8,9s7)10
Z.[5'OX V+sUq=ip.)q+y
e$;:1KwO%-'pu/ f\dFYX8
X256;>7d;6X%4.#%yQ3A:zXjq
H]=3g\#;F]2:.#%Yq3a:L
!*$;5M2vRjs+R-g'_jq
H]=3g\#;6b='.#%Yq3a:L
!*$;5M2v,9k'XdZ3+/o-/z
-61'$U9pi<9[2Q=IP.)Q+Y
e$;:1KwO57g8,9s7)10
Z.[5'OX gOZS+r-G'_JQ
H]=3g\#;Rx2G8,9S7)10
Z.[5'OX 61sS+r-G'_JQ
H]=3g\#;.x l.#%Yq3a:L
!*$;5M2v8z*Q=IP.)Q+Y
e$;:1KwOypu,6\=6cE*p[
+t'Y=O$Y';<dm786\=6Ce*P[
+t'Y=O$YgdoMDz3+/O-/Z
-61'$U9paAy%s+R-g'_jq
H]=3g\#;%.Dz3+/O-/Z
-61'$U9paf9xs+R-g'_jq
H]=3g\#;%.04a6\=6Ce*P[
+t'Y=O$Ysv7C$l<64((6
BIg8[9:b8!>1/tF\Dfyx8
X256;>7dm!=7g6,9s7)10
Z.[5'OX 34\2q]ip.)q+y
e$;:1KwO\7>p6*=6cE*p[
+t'Y=O$YDY /DI3+/O-/Z
-61'$U9p <%-s2R-g'_jq
H]=3g\#;o\7j,6*=6Ce*P[
+t'Y=O$Y%t9/DI3+/O-/Z
-61'$U9pL3.<FQ]IP.)Q+Y
e$;:1KwORIitX/Tf\dFYX8
X256;>7d!(c$L<64((6
BIg8[9:%iMP6*=6Ce*P[
+t'Y=O$Y*!(C$l<64((6
BIg8[9:%,)..%Yq3a:L
!*$;5M2vg-s2R-g'_jq
H]=3g\#;.U3G6,9S7)10
Z.[5'OX V+s+iC$l<64((6
BIg8[9:%-Ug%/tF\Dfyx8
X256;>7dT6B='..%yQ3A:l
!*$;5M2v12kQ]IP.)Q+Y
e$;:1KwO42'G6*=6cE*p[
+t'Y=O$Y[2q]ip.)q+y
e$;:1KwOR4't6*=6cE*p[
+t'Y=O$Y$29C$l<64((6
BIg8[9:%$;J6*=6Ce*P[
+t'Y=O$Yw23rDI3+/O-/Z
-61'$U9p3///Tf\dFYX8
X256;>7d5OBCg6,9s7)10
Z.[5'OX :YZMuW[G6,9S7)10
Z.[5'OX [ODvq]ip.)q+y
e$;:1KwOkG 36*=6cE*p[
+t'Y=O$Yg8q]ip.)q+y
e$;:1KwOk#u,6*=6cE*p[
+t'Y=O$Yg8<dgG6,9S7)10
Z\T;9rXZ3+# uM00
o,<Y9rX*$<VQ
$rm787QwW*\:p>#=u5e2Y7;X([25pX5wIo8Z$_#pH'25PxuWIo=F$_#hH/ (=$8
_6*6uhm\w-9/-S70#+0[7j7Qw39$;:1K/A4A277KV[o. $_#+y
8>;6\t;:)Xj$42/uMP2Y73w!N3oWy#(:[X!TMkvo9A2p[
a;!MmdV7QwC96 /\t;:)X:$80vo<mdV_#+:Yg;J0kvo)X:L
T*);o. $_#p:5>z_9kvo)X:$%' 4bmdV_#+y
87ZW\#(:'V2jm4):)X17!]49!1:;tD203Dz3+/OX97d'.#(:7 -0><6(/f$v%toQ=IP.)7w mEo$_#UH'25Px]Q
$*$U:M4W-9U-;7x#+Xx*$].+H:F+T3y_od8zJ6\=6Ce1$,C  9a2k<+UP: (=xJ,*%i78%/ F\Dfk7%=:)x:l
Tx=:)XhZEu4(*\h97%=+9a277X=+9a277%M:)x:l
Txm:)X:$,X :)Xh$UX :)Xh$,X=:)X:L
Txmf9A2p7%=%9A2p7x=%9A2p7%m%9A2p[
aMiKX*$x#=ir>2Y7jwIDIa$_#+:%iA$_#r3E%:P<<6e!V(=Ee35b8!>1/ F\Dfk[
a;iKX*$x#OF9A2=J<6(/h2'u#(:/Xf61'2:)XhL
TSV7y2\$_#r3EJY50.+((: JM4S+r-G']#;fk8!$_#Phih(=XjLY
8-'dX#(:71-7hJ+P8PpJ/JS+r-G']#\39A2p!-PE(%2MB#(:!1-Pxyj(SX]s7Qwx/: MJ/ f\dFK[
a\m-X*$x#M(9A2p7dy /x*$]3x3/1S*tD;6x1G8,9S77X <%3w-91-s<]Q
$%-'57Qwx!1-p=juE:: v+SuQ=IP.)7wO\7:,7Qwx!1-pXj+3i: v+S+Ic[L<64R:%-'7u#(:s*)9XjwO\7J,7Qwx/: v+SuIc[L<64RY
8pu\-#(:/B:0EJj)9M78+#(:[Bjsb#Y0j_l$_#pH'u+)0.+((X <%*+:)XjZ=5U9!1:9[
a;6x$h$_#UHIV23.<+:)X1)!-3mU25P=3_or$(P6\=6Ce1$,%t9/X*$$+IwS1(=xJ,:r$(X7Qw*'b+SH<6(/h0
o+09:)X5s748:)XET3J+e9[!G%<w-9 -S0A+C/xzV0*W-9U-)i<_([*0
o#Z;:)XhTtJU(9$>h##(:/B:*I5j:KPU[7Qw(e1:p<3w%%0ax7Qw(6
:AV9g;:)X:ZxJ+wSJ)$Sc2:)X+ZI5p9!1:079VtJx*$3Jx($ut(># T5>'w8#(:[B+L
T% t5>'W8Qw(e12t%[+:)X:ZxJ+w'1t$0s$[9A2=X++(/%e(>rwf*7;x7Qwpe J00.+(2z
$<D0w-9\H$rJW-9Y:zX;4('v$vRjs+R-g']#!'9A2;!]uW:25p=jwr-x*$h+j#SF(=x3,y
84a$_#pH[ YT3Jp(92m$_#pH2Xp/1sW-9YT9$-,$%-uG%/ f\dFK7*Y<572y77+$%$p/1sS+r-G']8
_f\0;j7Qwx(*yOy%y<57g8,9s77z
$GX#(:'X;a9#(:7 -P$V3$%=!/6\=6Ce1$13w-91-$1-W-9 -p[
af(9A2p70P:)X:$G<2'9A2=X++>9p4A7Qw(6
: ,-#(:IBY5b<6(/F26s%9:)XhZ=Rje9$ h-%/39A2(!v)*/1V$.D#[r>j$_#+H/1v9[
atoW3l[-#(:/B);7d50072Y7jX(:*26+[D:)Xh$Y<= 5X*$x++($/E5<8
_2B>/t=#(::Bj)0a+(SXI/S0)c9A270.+(ix\68T! 9A2p!33)$xIV4sK:)X:ZxJlc$V0
o.D# bP2Y7-X)[ 26yC2<Rx*$=++([X3//#(:7H$V8Z*q=ip.)7W;%04$_#r32 -7$a;;%04.#%Yq3y0
o8DKiO8z$_#r>$BvoY';<dm786\=6Ce1$.'mz9a2P!Jjw[1)$.'m[9a2P!-+wSV2,8#(:[b:l
T[=2F=:$_#39!1:(7[=2F=H$_#3:-2'gx#(:[/-0<#$ZWPl$_#UH$J)T3J+e6
:/a4D=:)XhZI]j981:;7GD!%I2Y7jXM92!hy%w-91-9irL:58!X1g/:)X:Zx3+c6
:/HO0$%KX*$x++($%+$Scd[5>A$_#pH[%S$#cd[5>A$_#UHU1S$1cd[W[p$_#+H/ S7h8
_[wG/h#9w-91-pXvPW9>7A-C 69A2p!j+3927A-C 69A27!3w+wG/h#9w-9%0
o1cd%9A2p!jP(2f231CD%9A2=J+i9!1:070#zkx*$x++([Jt07G#zkx*$x++(/ 0
o1cd<%X*$x++((V:s70#zBp2Y7jX(/ Jpe#/!n0 $_#+H[V+)7\#zkx*$=8
_2mE(vo<w-9 -p>YJ:]8![Y#(:'B+$#sv79A27[
a/Zb.2Y77uhuf+t3jP(8paAyts+R-g']#/Z%.2Y77uhuf+t33+$%>!vm/ f\dFK7gd[MX*$X#/z%I2y77pH[HvT3Jp(8PAaY%S+r-G']8
_%N0L$_#r3E v*0.+3/: [OD=q=ip.)7W%R>2Y73)*/1T$S%):)X:Z$#/T9A2p[
a/.5$Ig9#(:UBt$Sw$2]= $_#3H$Xp -gY:)X577[/O*x*$x+Iy
8MDh##(:IB+$#T[T9A25!5P)9-D DGy:)X5P!JjP6
:]J=#(:!1-sxVj:47h37Qwx!%-*$UH9!1:;Td\ [Ig8,9s77x]Jb#(:!1-PhyIe9I]jB#(:/B:Px]j)6
:MJ0#(:7\hZ<-j$%4'T6\=6Ce1$,$299A2p!jwR5 2y73xmI25Px]WR- 2y7.IH[*:(0.+3(Z
$\s3w-9\Jt3jP(9$3j7Qw3/x;J7Qwx[1:pXA;'XdZ3+/ox9$;j_7+$%$;j6\=6cE1l
T: 0wMDv7Qw397ZW4KVO9A277\V!5x*$=+4w' (oxVU:=.7X7Qw*(bH90A+Ciz
$8mC/:)XjZ=VI981:;7<9:)XS7xJ+(/12GD#(:[X( 7Qw(efH*[
a\T9A2p7S 0w=2Y73Xp97ZW40w-9U-07\2+m82Y73q
$.0U$_#UH[V+;0.+($X</uzw-9%-7$R)*/ )$*zmzBx*$e+,9! H$#lk:)xHz<rq
$W#'D9:Mo)X:ZxJ3)I%2h*S*<y2PY7jX(/%J;B#f6bX*$=Jx)IXfF-9K:)XhL
T*F<9A2p!5J:K#U$_#r(E1:7=R_oK#G8,9S77XOF9#(:/B)*7*F<D02Y7jX#(z
$[*zm<9A2K=<6([1$vslkIc[L<64R:O#U,9#(:/Bh$.0Kin02Y7jX#(xAF9Xd<9A2KJ<6([1$vslkINdZ3+/ox6
:OF9Xd<9A2p!vL:x$/$_#+H/1h)7S/,9A2p!j+(( )$%*f<dX*$x++(/*YP<8
_ k#u,7Qw(e1:77ST[BC!$_#+H/1h97S/,BC!$_#+H/1:(742!Bx*$j+,c:H0
oYk/Z9A27!5)*/1T$Yk/!9A270.+($x ,*#(:/Z
$:yx9!=x*7>jw;BCoh#QPE/z
$/1')t9A27!-)*/1y$9059jX*$=+U9!1:97x=0%x*$x#\6x;:$_#+y
8I]<%h+:)X:$UwY f12Y7jw24-'dX#(:/Xl3MDY fX*$x8
_IR. <%hw-912/%Wu:)X:$,T;.'X*$=#=0%2'gx#(:[Z
$MRjw-9\)zJr)*sxLMRjw-91-Pj<6)9C]\X#(:/XImrJW-910
o,%vo44:$_#p:didVG$+:)Xh$G9K'xX*$x+4)90'T%[+:)x:l
TS\r/x*$x+4)6
BOwY<=:]IP$.kv<6
:lT+<=:)vsl
T%9!=x*$I<6(/H23\[o:)X)Zx3)*/1Y$Uk#+9A27!-)*/1T$Uk$79A29!jP9!j0
o+<5<W.z$_#IH'X/H#$ !xX*$=#t'Y=O[/w(:[XOw-kvo9A2p[
a/']mdV7QwC98![\t;:)Xh$42fuMP2Y73wz*.oWy#(:/Z
$v4t90%x*$b#5obmdV7Qw(96/Wyp90%A2p7'D'X2oWyQw(6
:IT8kvo9A277[/+>0oWyQw(9738az90%A2p[
a2+Mm2Y7-4:x.fT7Qwx'bH00.+((: jm4s2R-g']#203$2y77pH$u(=xJ,$%7d'6*=6Ce1L
TSV7ox*$]-x>*\:PEa; MeG6,9S77Z
$t.z503x*$j+,:d8zJ7Qwx! -(Br)*/1VOyx#+Xdi3+/ox6
:lH#sW-9Y57!v4#*\:p>.;fw['..%yQ3Y23,#(:[B+Pj<6([J0
oU%W-91-)=j)*[v23,\w-9 2,,\w-9 23u#(:/Z
$,u#(:/Xl,##(:[X4,##(:[Xl,,#(:/Z
$,u%w-9123,Gw-9\yzH<6([j2,,Gw-9123uGw-910
oUX/:)X:$,X=%9A2p7xmfkx*$x#;FKX*$]3x)/H(=xJl*/B+T3]'mA07a\[S2r-G']8
_OD>2Y7jw7Rx*$3;)*/1v$)XW-912'.[5 9A27[
a2036( 7Qwxi25pX]_OX.F..%yQ3Y2V,g#Z9a25!5l9!1:*[
aY f12Y776(e e5<A;6X;:..%yQ3Y2M=#(:/Bjs=uW.'x*$].+H/1Y5ba;.'DI3+/OX9,)$_#R(8p]S6*=6cE1l
TW3[9A2KB+3$%,)x6*=6cE1$UJW-9f(=XjL:%-'P7Qwx/b)0<]_O%-'p6*=6cE1$Y9239A2p!-3C(z
$v+Su:)X1=x++(UVv9tD;6x%G6,9S77X <%JM:)X1=x++3[HSoYDY /cG6,9S77X <%3m:)x)(>j+(/x <%-m:)x1==+3Wu: v+SuIc$L<64RY
8pu\-#(:'BEsb#=ob4/$_#6(E h)7K#+\x*$x#Y0j_l$_#6PE%+00.+((Z
$v+ST(9A29!3,p*\:p$#;6x$h$_#3cE%v$,*)(9A2Ke+,#:25pX]_OR$(p6*=6cE1l
T%=2*12Y773hivJt3j+E8pL3.<+Q]IP.)7q
$r$(X7Qw3*\:p>#=F]2/$_#rcE )*0.+(S: 3,*)[C$l<64r:3#2y7])*/1v$#2$ *x*$=<_('10
o#D)29A2S!5)$/ y$#Z;:)XhTtJU(9$>h##(:/XAV9gW-91-pXjP)2f0
oSDK%-X*$3Jx(/1j5j5W%%0av7Qw(e1:pe#/!xX*$x++(/%t(<#Y0j_2Y7.+h[%+*[
a T5>'w8#(:[B:0b#=+j=AJM'(:/Bhs<RW9X=:$_#+H'%+$0s$[9A2p[
aYT-X*$33Wr/x*$]Jx([Vh;tD!(C$l<64r:r4:$_#r(E1:P=-+c8Pl\x/tF\Dfk[
atR/X*$]J_o]4:..%Yq3y2\1#(:[b+5e<6(/f0
or0W-9%-9>r)*/ e$rgW-9 -0>3)*/ :$0$W-9 2<9[2:)X1;bR+(/: <9[2q]ip.)7Q
$]-Ug%#(:71$V.9K'xDI3+/OX6
:;P7QwCef)07[D<9A2K=+,(:: Gozs2R-g']#$39a2P7[U:)xHl
T0+:)X:$-3W-9%-5<;)*/1+$G<2'9A2K3jX3ujVOyW) 5di3+/ox9p4A7Qw(6
: ,-#(:/XI[,kW-9*y$.D#[r>h$_#jHI25PxyW2%8/3s-w-91-p=-+)6
:IV40=%-X*$3Jx(IX :M$2:)X:ZxJ+>'%h$.9$Z9A25X3XC9p(3%[w-91-p=;+36
:I/S0)39A29!;3W*::pe#t<K3(57Qw(e1:S7:T;m4'$_#+H/1S;<yW2%8'/7Qw(eU:)B8
_2%8'/y#(:[BE)7*;!X0L$_#pH: t$8Z*:)X1*tD5<fDI3+/OX96 /U#(:7h)z=5_Oypu,6*=6cE1l
T';<DM787Qwx'1:Oy';<DM786*=6cE1$.'mz9a2P7*5i-X*$X+LE9c3$_#PY
8=L6/[+:)X)ZIR)*/1t$1%ta5 2Y73XEix/T%[+:)Xh*!RW'N8 37Qwpe*+t3jP36
:/a4D=:)X+Z$;U981:*7GD!%I2Y7jX(/UT$02#orX*$=#$!n3;[S#(:/B:7xRQ
$-8!X1g/:)X:ZxJ4w9>7A-[/%9A2p!r3:=8!X1g/:)XSZh#$!n378+#(:/B:P$uIy
837A-C 69A2p!j+(2%s$Scd[W[p$_#+H/1h*j3W9wG/h#9w-9 -9B]P:=8!X4\Y:)X)Z=-I)6
:;HOgW-91-pX5uE9I;hoGw-9\Jz<-)*/1+$-cd%9A2p!j+($xAHOgW-91-pXj,Msh0
o1cd<%X*$x++(IH+97%$!N0 $_#6cEH+T3J+P937A9dw-91-pXjup'xAHOZ;:)X:ZxRU>SZ
$842/:)X:ZI5W2mE(vo<w-9 -p>vw2wGav7QwC9['W)#(:[Z
$[ozV:)X15!3pc*\:7xa;%nPd..%Yq3y2[odV:)X15!3pc*\:7xa;%nPd..%Yq3y0
oS2f09A2p7GDORx*$]3x3SH(=x3+$%>!V,/tF\Dfk[
a/Zbi2Y77Ph[hVt3jP(8paAy%s2R-g']#/FKX*$=<6(/*0
oS%):)X:Z$#/T9A2p[
a/.5$Ig9#(:UXAm1*t'%X*$j#$%%22Y7jX>sxOw4\W-9 :l
T\VtJx*$b+j>:Xpwd:/69A2=X++W6
:]J=#(:!1-sb]U:d,'77Qw(e1:9[
a\ [i2Y776#evs(0.+((: M%3=Q]IP.)7w.X%2Y7.+h/%))e8
_f47J$_#6(E1:7<#! *X*$].pH(F)oY$29C$l<64r:R4't7qWX!1-Ph5+#8Pl\%<S2r-G']#!'[x*$<<6([%0
or0p:)X5s!JI)*\:7>#=R- 2Y7.uh[j(=X3,:0>h$_#+:r4A77Qw*[25p=3q
$]6'$_#pwIX;J7Qwx/: G%/Tf\dFK7*$ 9a1PtDt'xDI3+/OX6
:\8Mc90%X*$=#2+M8OwY#(:[Xzw4[W-9*-*$5)$//J$#T#[9A20!rJM*::5$8
_+m8a$_#3H(Hh00a+3/X(>7Qw>[1:pXj+:5_2Y73w9Jx*$=+p>6
:] 7Qw(97ZW4[w-9 -07S 0w32Y7;Xp9['8mCw-9 0
o*ZK:)XSZ=-)*SX</UZW-9%-)J<63ix</U2K:)XvT33I:=#u$_#Ph[10
o4L2ab_4V_#+H/1)07C8 F03t+Qw(e1:7Hrw[\02Y73P:3#/<9#(:[Z
$6-zw-91-9HYH:K#U$_#r(E1:7=R_oK#G6,9S77XOF9#(:/B)57*F<D02Y7jX#(z
$[*zm<9A2K=<6([1$vslkIc$L<64R:O#U,9#(:/B:s7*F<DGu$_#+H(F2[*zmzBx*$];x(*\:7xa;%.04a6*=6Ce1L
TK8<DGu$_#+HS 2j.0w-91-pX3H:x><$_#+H/1:*$#22-04$_#49!1:0[
a2%.04$_#+H/1:s7ST[BC!$_#+H/1:s7S/,BC!$_#+H/1:*742!Bx*$<+p3:Z
$v\GD:)XhZ$<6(/*2v\G#:)XhT3J+w9p4f7Qw(6
:3VUk#+9ah*x#5<dm78_3l(6
BIg8[9:%7d'6\9F\Df$_#+Y
e$;:1Kw<wGoG6\9f\dF$_#+Y
e$;:1KwOD8Zj6\9f\dF$_#+Y
e$;:1KwOR8Zj6\9f\dF$_#+Y
e$;:1KwOypu,6\9f\dF$_#+Y
e$;:1KwO%Ia.#K=6cE2Y7jq
H]=3g\#;FW['.#k=6Ce2y7JQ
H]=3g\#;;%04.#k=6Ce2y7JQ
H]=3g\#;or>G8\%Yq3X*$X8
X256;>7dy F1g8\%yQ3x*$X8
X256;>7d;6X1g8\%yQ3x*$X8
X256;>7d;6X%g8\%yQ3A:l
!*$;5M2vy92CDdZ>,9s7)10
Z.[5'OX V+st(C[O3+/O-/Z
-61'$U9p <%*PQ=ML<64((6
BIg8[9:%iITx/ ur-G'_JQ
H]=3g\#;Fr$(P6\9F\Dfyx8
X256;>7d=2*3g8\%yQ3A:l
!*$;5M2vg;s+oIP.)#(:/z
-61'$U9p <%jmQ=ML<64((6
BIg8[9:%-Ug%/ ur-G'_JQ
H]=3g\#;2\0;J6\9F\Df$_#+y
e$;:1KwO5Gu.#K=6cE*p[
+t'Y=O$Yw) 5Dz>,9S7)10
Z.[5'OX :9HS+Oip.)#((6
BIg8[9:%6 /U/ ur-G'7qW(6
BIg8[9:%='.#k=6Ce*P[
+t'Y=O$Y$+q=ml<64W-910
Z.[5'OX [ODvq=ml<64W-910
Z.[5'OX [OD=q=ml<64W-910
Z.[5'OX [*/ ur-G'7qW(6
BIg8[9:%></U/ ur-G'7qW(6
BIg8[9:%></U2S+Oip.)#(:/Z
-61'$U9P'w)/tur-G'7qW(6
BIg8[9:%C78%/TUR-g'7qW(6
BIg8[9:%I78%/TUR-g'7qW(6
BIg8[9:%pL[6*9f\dF$_#+y
e$;:1KwoYPU,6*9F\Df$_#+y
e$;:1Kw<WgOg6*9F\Df$_#+y
e$;:1Kwo\7>P6*9F\Df$_#+y
e$;:1Kwo%-'6x/tur-G'7qW(6
BIg8[9:%IitX/TUR-g'7qW(6
BIg8[9:%IL60js2oIP.)#(:/Z
-61'$U9P]56*9F\Df$_#+y
e$;:1Kwo4uG6\%Yq3X*$x8
X256;>7D;6x1G6\%Yq3X*$x8
X256;>7D;6x G6\%Yq3X*$x8
X256;>7D;6x%G6\%Yq3X*$x8
X256;>7DY<57G6\%Yq3X*$x8
X256;>7Dt6b='..k=6Ce2y7jq
H]=3g\#;O\7:,6*9f\dF$_#+y
e$;:1Kwo%-'7U/tur-G'7qW(6
BIg8[9:%pPjBxs2oIP.)#(:/Z
-61'$U9PMP6*9F\Df$_#+y
e$;:1Kwo]4:..k=6Ce2y7jq
H]=3g\#;2%0mx6*9f\dF$_#+y
e$;:1KwoY0>..k=6Ce2y7jq
H]=3g\#;242'G6*9f\dF$_#+y
e$;:1Kw%n0d..k=6Ce2y77Ph[%(==jRY
e$;:1Kw%n0l..k=6Ce2y77,hi257=7q
H]=3g\#/,c$o3+/o:)x17!;)*Uy0
Z.[5'OXaf9xs2oIP.)#(:7 (==Jry
e$;:1Kw%.04a6*9F\Df$_#rm*\hP]8
XUmp(37\9f\xz>MZQ
$r2pT,#(:I/0
o,k#+9A2;0.+(sxl>14W-9U-pX3)*/1+$Uk#+9A27!r)*/1T$Uk$79A27!jP9!v0
o+<5<W.z$_#IH' 2x4\!+w72Y73w256;>sh\-912>m090%x*$=8
_%5$oWy#(:'X7aSkvo9A277CD[o. $_#p:n2d>MDW-910
oYcvuMP2Y73w;%0oWy#(:/X3XMD:uMP*$x#5Z57(>MD(:/Z
$60'90%x*$=#$%=NU>MD(:/X':#_KuMP*$x8
_ =.o$_#UP97D'0#(:7%-90.+((: JM4S+Oip.)7Q
$x.f67Qwx[bT00.+((: jm4s+oIP.)7w mEo$_#UH225Px]Q
$*$U:M4W-9U-;7x#+Xx*$].I9!1:;tDM!=7G8\%Yq3y0
o,c  9A2K<<6(/f$v,C  c[o3+/ox9il$_#+Y
8CL$_#+:riz$_#p:diz$_#p:rc2Y7jq
$dc2Y7jwfD[2Y73wID[2Y73wfDI2Y7jq
$dcl$_#+:riA$_#+:diA$_#+:rcA$_#+y
8C4[7Qw(9I43s#(:/X4,,gW-912v,Gw-9YHzer)*/1VOyd=%c[o3+/ox6
: ,S#(:!V(=xJ,:3i2Y7.39!1:*74m:)X:$)*$;xX*$x8
_ mE3tD#(:7J-*E<6(/F$V%TOq=ml<64r:%iAHO#(:IB:T3J+#6
:pJ/JW-9Y:zXU,3(: <%h+Q=ML<64R:4 2y7JxcIHE$g-w-9\:ZxVU)2X]S7qWX! -0tD\mC[O3+/OX6
:]s-#(:/X4P7Qw(9pPjX#(:7%EZba;o\7:.#k=6Ce1$y9239a27!3U3[u0
oY92c9A2KX++#8p <%-s+oIP.)7wo\7:,7qWX/B:oYDY /cG8\%Yq3y2v+SPI9A2)<34C210
oY92cdX*$]J_o%-'5U/ ur-G']8
_OB4/$_#+HIV2>4\Y:)xH$+t[tRx*$X#;6X$:$_#R#e*T50.H$%pPj.js+oIP.)7q
$%-'6=#(:7%SZ=;_o%-'6=/ ur-G']#=2*12y774H2VjT3J+e8Pl60JS+Oip.)7Q
$riITx#(:7%-sI5)*/1EoY%=2*1G8\%Yq3y23.<F:)X1)!V+m*\:P>a;F]2/.#k=6Ce1L
T48:)XvT3J+e9[!G%<w-9%(OX-+:=P(67Qw3e%+7X;)$/ V$#Z;:)XhTtJU(6
:AV9gW-91-pXjuWu%e57%/OB>2Y7jX(/1HpBU+39> /s0w-9\:zXj+Eu/)pH#/ob> $_#6(E1:P=;pe/H0
o,g;<KP2Y7jX(/1)9i5+p9>7j7QwMe1e*J<6(/j2<m:[:)X:ZxJ+)9[\GsSV;9A2p!5+)6
:l8d[/ M6*$x++>/Fj$0s$(9A2p!3LC[fJ$0s$[9A2=X++#s y$+:f:)X57[
a!(9A2KJUPh(: \X/ UR-g']#=r/x*$3rX#uU2\1#(:[bT;e<6(/f23r[W-9 (=x3+y
84/$_#pHSuYT3Jp#9Imx7Qw*[bJ)><6([f2\s#(:/B:)>5l:r4A$_#6>*\:7=8
_90x*$=#Y<572Y77J#:1:Oy9k'XdZ>,9s77x;p7qW(E1:P$Rh:5Gu$_#RC(%-)$]4#8p;A9/ UR-g']8
_2\0;j7Qwx/x$$y*y<57g8\%yQ3Y0
o13W-9 -)$rw''x*$x++eS/:5j3I:-12Y7jw[[x*$x8
_.*7;$_#r*/B:s=R_o42'g6\9F\Dfk7dmz9A2p7dm[9A2p7*/fox*$j+I>6
:IV40=%[X*$<+4#(%ET3J+P9$ h-%/C9A2p!jP3i sS7*;!-Iax7Qw*/bV;eY,E9p3WRSw-91-(e]3#(z
$6+[D:)X)ZIu3#9p(3%[w-91-pX3w2B>/t=#(:SBv*>3j981:;7*k%-2J$_#3H$/+s0.+($Z
$ .'VrXx*$=<6([126yC2<9A2p7*;!X0 $_#+HUJ)(xyW2%8'/,#(:' Y9b-+(6
:3//#(:7H$V8Z*q=ml<64r:YPU,7Qwx$1-(BU4$%6 /u/ UR-g']#5OBCoh##(:[ JzB3w;%cOH##(:[h:l
T'kIo8Z$_#pe/XI:U2W-9%-pH-PM9$3,-#(:/B+P>5j39C3$_#py
8=L6/[+:)X)T3Jp39=L6/[P:)X:$-<2'/X*$j+l:5g7V,#(:'BSsIR,9!1:*[
afZWPl$_#pH(V:;<<_(/F2[oC;f9A2p!rw9N8 37Qw(e%+9i]L:58!X1g/:)X:Zx3p36
:/HO0$%KX*$x++([F2[42F'k>2Y7jX($UV$#cd[5>A$_#4:58!X4\Y:)X:Zx3,3U%hL
T0#z-8Z<7Qw(e1:5XrJ#uxAHO0#+\X*$x++([/E*>#)!n378+#(:/B:PbJpc(u2842F!=-2Y73q
$58![7Qw(e1Hpev3p937As#(:/B:P=;U>UXAHOgW-91-p<rJMs 2G42kO9A2p!j+#2vJl
T0#zBp2Y7]XE*\:pi#/!n0 $_#+H/1:0<# !n>2Y73X('/y97*V7*p!t7Qw36
:IHOg;:)Xh$#sv79A27[
a/Zb.2Y77Ph'/(=X3+$%>!vm/ UR-g']#/z%.2y77pH'/(=x3+$%>!VM/ ur-G']8
_%N3D$_#+:Kg 37Qwxs25p=3_OkG 36\9f\dFK[
a/Zbi2Y77L9!1H7Td/z%Ig8\%yQ3Y2[,gW-9 (=xJjy
8>Lt7Qw(ej2[D#(:[B:90.+3/Z
$[g[T2502Y7jX)9>]G.*$O9A2p!5w6J3a<7Qw*[x;[Y<W-9 0
o\T#+9A27<# 0j_2Y73X)9-D DGy:)X:L
TW239A2=X+i3ih2,gSP:)X5P!Jp:47h37Qw*[be7H<6(/f2M%-w-9\:zX54W(hyl
T$299A2==+,>ixl\%<W-91-p>#!'[X*$x#![[X*$3]x(:25P=]Q
$0>h$_#+:572Y77HE[f:Oy[2Q=ML<64RY
8_ZW4KVO9A277S 0wMDv7Qw(9[Dh1#(:[2$PbJW+m8/$_#4(/1:L
T\V!kx*$33x>*\:7b#)u9A2)=j+(/1:$1:W-9 2tD#(:[Z
$MD#(:/X'8Mc$:)XhZ<#2+M8/$_#3HIXzJ#T#:)XhL
Tlk<9A27!rHMsh(=XjJ:.04/7Qw3e1T7$5)*/ )$*ZMZbX*$b+4mI +T3Jpm9[</7Qw3e1+l
TC8 F0\,yQw(e 2h*S*<y2PY7jX393P/7Qw3/xfF-9K:)XhL
T\8O9A27!j4:]3U$_#+H2Fv;E#/,bX*$]Jx(/ )oYg8q=ml<64r:O#U$_#+HU%)([
at[bcU$_#+HSV2[*zm<9A2K=++9!1HpTd/,BCg8\%yQ3Y2>*ZM<9a2P!3W2-04a9#(:/by5[
a/,bc!/7Qwxub:t3jP(8paf9xDQ=ML<64R:o#u,ozw-91-*7g8o9a2kx++([u$VSLS+Oip.)7Q
$K#U,Y#(:7 (=x3+$%></U/ ur-G']8
_%.04Ay#(:7u-P0.+3/: [*ZMZC[O3+/OX97ix7Qw(e1:7<8
_ k#2Y7jX(/1e$%*f<dX*$x++('Z
$jslkI9A2p!j+($x'6-ZMZ9A2p!j+3'x'[*ZMZ9A2p!j+(2xfJ4ZW-9U0
oYX8:)X:L
!KVO*I26\%y:]md/[
a=9\2l$_#4>6
:l>4\W-9f(=XjL:rm;'7QwMe1:70.+(ix4>4\W-9 -00.+($x4>14W-9 -p=<6p6
:pT8Z#0=X*$h+U39378R\# 9A277*$;5MadgQw(9MDx\t;:)X:L
TG$2o. $_#U:WgA>MDW-9 2ho090%x*$=#d9MmdV7Qw(6
: HMkvo9A277';<o. $_#+:Y3dV2kvo)X:$82$ *mdV_#+y
8$(:\t;:)Xh$1g 4bmdV_#+:x6z_9kvo)X:L
TS 0ox*$bRW mE($_#rcEH(=xJ,$%7d'6*9F\Dfk7SV7]x*$]3xwI25Px]_ox.f..k=6Ce1$%TOu9A25!Y)*/1el
T<T<y.F$_#3H(X4H#sW-9Y57!]49!1:*Tdm!=7g6\%yQ3Y234\2:)x1=<<6(/f$v,C  c$o3+/ox9IL$_#+y
8CL$_#pH/*tT3JpP9IL87Qw39CL87Qw39I4$_#+y
8C4$_#+:rcz$_#p:dcz$_#p:rcl$_#+y
8C437Qw(9IL[7Qw(9CL[7Qw(9I4[7Qw(6
:4,S#(:/Xl,,gW-912,u%/:)X:$Y%/:)X17!JpP*\:P>a;or>G6\%Yq3y0
oYX/:)X:$)%W-9\)t3j+E9E4$_#+:3$;:%#(:/Z
$jm459Jx*$]3xP:V(=xJl$%7d'6*9F\Dfk7d=%wG2Y7Y)*/1el
T92A/x*$].+H/HS9ha;6x;:..k=6Ce1$g3w-91-7byj:4%2y77+H/J)7ja;.'DI>,9S77X]s7Qwx! -peU_O4Ug6\%yQ3Y0
oG;f:)X:Zx;h>IJ2,X#(:/X <%JW-9YJ0!-3$%pPjX/TUR-g']#;6X 2y77pH$VtPba;o\7h..k=6Ce1L
Tdy 'x*$]Jx3[V+oYDY 'DI>,9S77X <%jm:)x1=X+3p8p <%jmQ]ML<64R:%-'7u#(:7/+7<-H(8p <%3mQ]ML<64R:%-'5u#(:71$vy92CDdi>,9s77z
$v9$F:)XhZ<V,:rPU\-#(:!1-Pj5,c9M78+#(:/Bh(7dy ]12Y7jX(/1)7H8
_O\7i77Qw3e +(7%T9/x*$].pHI25P=J_or$(P6*9F\Dfk7%=2*12y77UH'HST3J+#8Pl3.<+q]ml<64r:R$(x7qW3E*j50.+($Z
$3,*)[9A27!r43*\:p>#O,9A270.+(sxza1s):)XhZh<_('128y<T:)X+Z=;U([2$P=uQ
$=0 $_#p981jP7G;<kx*$3Jx(/1)$,g;<KX*$x++(/*))EJI:KPU[-#(:!1-PxJI#$V0
oSDK%%X*$x++(/*v(E5h:r> /SDW-91-pXji3:vs57G# 9A2p79VtJx*$3Jx3/VvL
T\['k7D:7Qw(eUV)$#=+j=AJM'(:/Bh7b-Uw92'GX#(:/Bj9$RW9X=/$_#6(E S(<8
_6J32Y7.P:012Y77P):bT;3d!(c$o3+/ox9Imp7Qw*uby)J#!'9A25!v3#*\:pe8
_201*$]j_O]4:..K=6cE1l
T$F:)XjZx5h9!1h*7%![9A2==+i('25p=]wrkx*$b+pc[25P=JW90x*$=8
_6B='$_#rw2HvPtDY<57G6\%Yq3y26+Z$ 9a2k=u4$%$p/1sS2Oip.)7W'/X*$X+,W9=!/7qWX[:+N9cdu5DI>,9S77Z
$G=#(:/X;57Qw393:$_#+:- 2Y7jX(/ y(i-+>6
:]T%[W-9\:zX;HEsUs$YXd:)X:$YXf:)X:$.g=u9A20[
at.*7;$_7+$%$]T%[S2Oip.)7Q
$]P7X,gp:)X:Zx33P/F)$.D#[r>j$_#+H/1:7jJlmIXIV40=%-X*$33x>[ :)7d50072Y7jXC2*Hl
T*y'Nx*$b-x)[X T,s$:)X:Zx;pPUXI/S0)39A2)!;HE'%(OXjL:]0AX0-W-9 -9H3uM*\:7H8
_t]6D\%#(:/BY9Iyh>9$ h%zw-91-pi5+>[ 26yC2<%x*$3JxcUHY;=#toW7U37QwC'h+0B8
_;B;2Y77L$%6ud6*9f\dFK7';<dX*$]5Jhi%$v8dkIc$o3+/ox96 /uK#+9A2p7';Io8Z$_#pe/Z
$:9x9!=x*$=J+(/1:$.'MZ9A27!rip'U268xF:)X:ZbVh3:X4:7Qw36
:;3.H$(9A2S!rJM(j(=X3+:5iID13W-912x0S$(9A2;!rL([v2GoC;f9A25!jL>*\:p>8
_[N8 37QwCe%J7<v)$/1e$S2#orX*$x+3eSuE57<D!%I2Y7jXC(vVpe#$!n3;[S#(:/B:7xy4y
837A-[/%9A2p!j+Mi V$Scd[5>A$_#+HUut7<# !n3;[S#(::X;HO0#+\X*$x++)$Fvsh8
_[wG/h#9w-91-pX;J>(v)$Scd[W[p$_#+H/*h(buj:*8!X4\Y:)X:Zx33>IJ2842F!=-2Y73q
$58![7Qw(e1:(XjHW937As#(:/B:Px]3)S%S$Scd%9A2p!jJ>[/y97[#zBp2Y7jX(/j0
o-cd<%X*$><6(/*2[42kO9A270.+(ixzHOgW-9%26m4)ON22Y73q
$]8![Y#(:[XzJM4W-9 0
oS2K09A2Ks2k0c$o3+/ox9>!VM#(:7>!/m/TUR-g']#/z-.2y7JW%nPl$_#R%N0L..K=6cE1l
TGD<Rx*$]gd<rDI>,9S77Xa3s#(:[25pXUw%r22y7Jx)9>\$_#Ph[*(=X3+Y
8>]G.*$<9A2p!rw%4=i61dw-91-079[[k-2Y7.P:5> T7Qw(eh0
o\T#+9A2(7\VtJx*$b#Y0j_A<7Qw*/b:0[
a\ [X*$3Jxm$ t$GspF9A2==+4>s25pXYw.X%2Y7.+h//)S<#! *X*$33xP2J0
or[p:)XjZIR,3225P=JWr- 2Y7.Hhsv:(J<6([f2\s3w-9 -9$-4)*\:7=#t;xX*$=J+y
8='$_#Ic/J:$.[2:)Xh7huQ
$j[dH\T;:)Xh$%\v!O. $_#+:=.7g7Qw3*::5X# 0W32Y7r+(/10
o#T#%9A2==+i9!1H57<9:)XS7xJ+(/12GD#(:[X( 7Qw36
:] 7Qw(97ZW4[w-9 -07S 0w32Y7;Xp9['8mCw-9 0
o*ZK:)XhZj;)*/1t$*ZM<9A27!v)*/ )$*ZMZbX*$=<6([u28*zw-9 0
o4L2ab_4V_#+H[X7F%HK;*-*$x+p:--U$_#p(9E<x+zw-9 0
o.0K:)X:Z$Rp#9></7Qwxk#g6\%yQ3Y2>*zw-91-S<-u:]3U,9#(:/BjPIuQ
$K#U,9#(:7></U/tur-G']#9,BCu$_#+h/*e9i#T[BC!/7qW(EHv$slkIN02y77/,bc!..k=6Ce1L
TK8<DGu$_#+H2J2[*dw-9Yaf6*9f\dFK7G8<Dp2Y77/,BCg6\%yQ3Y2[*ZMZ%X*$]G8<DGg6\%yQ3Y0
o%*f:)X:ZxJp>SX'[*#(:/B:P=JlP97ix9xw-91-pX3+Csx'[*ZM:)X:ZxJpmUV0
o%*f<dg2Y7jX(/1H$%g8<dg2Y7jX(/1H$)s#<9A2S[
a;i.X*$x8
X256;>7d203dZ>64w-910
Z.[5'OXUHOk$q=mG'7qW(6
BIg8[9:%c78%/ uCe2y7JQ
H]=3g\#;6x;:.#kS79a2P[
+t'Y=O$YDY /Dz>64W-910
Z.[5'OX V+sUq=mG'7qW(6
BIg8[9:%iITx/ uCe*P[
+t'Y=O$Yw3q=mG'7qW(6
BIg8[9:%PpJ.JS+ODf$_#+y
e$;:1KwO%-'pu/ UcE*p[
+t'Y=O$YDY 'cG8\/O-/Z
-61'$U9pmp6\9Q3x*$X8
X256;>7dy<57g8\/o-/z
-61'$U9pi<9[2Q=Mg'7Qw(6
BIg8[9:%6UD6\9q3X*P[
+t'Y=O$Y[d<C[O.)q+y
e$;:1Kw.kG W6\9Q3x*$=8
X256;>7W/z%Ig8\/o:)xHl
!*$;5M2Msls+odF$_#PY
e$;:1Kw.k#u,6\9Q3x*$=8
X256;>7W/,BC!.#Ks79A27[
+t'Y=O$Ysv7C$O.)#(:/z
-61'$U907A\[s2odF$_#+Y
e$;:1KwOD8Zj6*9Q3x*$X8
X256;>7dy F1g6\/o:)x:l
!*$;5M2vy92(c$o.)#(:/z
-61'$U9p <%-s2odF$_#+Y
e$;:1KwOR$(p6*9Q3A:l
!*$;5M2vg;s2odF$_#+Y
e$;:1KwO%-'pu/TUcE*p[
+t'Y=O$YDY 'cG6\/O-/Z
-61'$U9pP/1Ss2odFYX8
X256;>7dT6B='..Ks7)10
Z.[5'OX \x/tuCe*P[
+t'Y=O$Y'KaC$O.)#((6
BIg8[9:%=!/6*9q3a:L
!*$;5M2v.'2Q]Mg'_jq
H]=3g\#\%nPd..kS79a27[
+t'Y=O$GgdorDI>64W-9 0
Z.[5'OX][*/tuCe2y73Q
H]=3g\#\%.04..kS79a27[
+t'Y=O$Gg8<dgG6\/O:)XhL
!KVO*I28\# Um02309)F9a20h8
_fo8Z$_#pH'25PxuWfo=F$_#+H' (=xJh:DM787qW3E/+T3J+w9cOg)#(:[b:70.HY
8-(:9CV+9A2)!-P:-8z\#c2:)Xh$.[5'o>>M_#+:o./>mdw-910
oS[tuMP2Y7-w!N>oWy#(:[X7A-KVO9a2772)0O. $_#+Y
8p7W\t;:)Xh$8DKuMP2Y7jw;-. e\T;-912:O[29O. y7JQ
$]23>MDW-9 2Gs\%<o. Y7jw Y[n/\T;-910
o%\vu9A25<#20322Y77uh2v(=Xj,$%7D'6\9Q3Y2jm4T:)X17!y)*/1EoYsv7C[O.)7W mEo$_#UH2V(=xJ,y
82i/8to:)X)ZE#M!=72Y77H9!1:;Tdm!=7g8\/ox9i78%#(:7\+zBrH9!1:;33)*sl)n9CDU5dZ>64R:RI2y7JQ
$di2Y7jwfR[2Y73wIR[2Y73wfDx*$x8
_IDx*$x#=i=X*$=#Mi=X*$=#=irX*$x8
_IDI2Y7jwfR>2Y7jwIR>2Y7jwfD>2Y7jq
$dcA$_#+:rcl[7Qw(9C43s#(:/X 3S#(:7 -)<<6(/H500.,=U9UHOk$q=mG']8
_OD>2Y7.49!1:;74=:)X5s0.+(SXf,7Qw(9EiG8Sw-9 0
o%TO;*_2Y773h//(=Xj,$%7D'6\9Q3Y2v,G#z9A2*0.+((z
$<%h+:)X1P!-p(': <%H+q=mG']#\39a2P!-pe[X]57qW*/B:P$Rjc9,)$_#R*[b:)7A;.udZ>64RY
8,)x7Qw(9C:$_#+:%-'p7qWX/: V+s+q=mG']#;6x 2Y7jXp[1yl
Tdy 'x*$]Jx(U1h7tD;6x%G8\/OX9PpJxXW-9y:Z>u_o%-'PU/ uCe1$y923Dx*$HrPp/1:$y92CDx*$].+h'h$vy92CDdZ>64RY
8pu\-#(:/BS9<RWUw[P$_#pH:*v$+T[TrX*$x#;6x$:$_#r#Euj)0.+($: V+st(C[O.)7Q
$%-'6=#(:/B)s<RWf]2:$_#r3Euh70.+($: 3.<+q=mG']#=2*32y77IHIVST3J+e7XFf7qWe*\:P>8
_+N='t7QwC*::5X# o*$2Y73XCi :S0A+3sxz/Y#(:[2$PbJW%%0a$_#+H/1:5I;3y
8> /s0w-9\:zXjJ(sxAV9g;:)X:$Sc2:)X)Zx]lm*\:P$#Y0j_2Y7.+h/%H)B8
_+J=ajm'w-91-;<-i:*7;P7Qw(e/:(<#) 532Y7.+h'%:979[[9A2==8
_r/x*$]Vj(Eu5VrJS+ODfk7$$:)xJzXY39!1:;7$f:)xHzH]H9!1H*7$/:)x)z<;H9!1H7[
a)R9A2779k'Xx*$]uj)S15V+Z$ C[O.)7W2\0;J7qWX'1:$3Dt6b='.#kS77X;p7qW3E%t0[
a$ZbX*$]3x>'*$V12Kq=mG']#$39A2p7[u:)X:ZEVle93:$_#+y
83H$_#+:42'g7Qw*/b:S>v,:r,(J1#(:/B:Pb5,e9C]t%[w-9\:zX3uY
8$]t%[w-91-pX3uC(x ,O#(:/X ,-#(:/XI[,kW-9 -7Hvq
$]P7X,gp:)X+Z<],c(25PxRW2%8/3s-w-91-p=343:U26yCFfk32Y7.+hsfe*eYwOy.mj7Qw(e*e;J],Y
8$PGo#(:UX T,s$:)X:$.Z/[* 2Y7YXEsh(OXj,:]0AX0-W-9U-(Hr)*/1Tl
T:T;m4'$_#+:]P7J9#(:/B:0bJl:]P7J9DW-9126yC2<Rx*$x8
_;B;2Y77L:8p3/// UcE1$8DKi9A2K=3Hh(x$9X,k!NM;.#Ks77x3V9X9!=X*$IJx>:X3VUk#+9A27>jq
$Y04>4\W-9 Vp7*5INx*$b++>'XI:U0W-9\:z=UiC9C3$_#r381-5fZ#ZO=G8\/OX6
:;3.H$(9A2S0.+3[x;3.H$39A2p70) 512Y7;XE9=!hy%w-9%-)JU4#*\:p>8
_[N8 37Qw3ef+per)$/1e$S2#orX*$x+4:*g7V,#(:/Bj0$u,e9=7A-[/%9A2p!jP3[z
$x42F'k>2Y7jX(/ e$Scd[5>A$_#+H/*)*7\#z-=a[7Qwp9=7A-C 69A2p!jP#[UJ7[
af!n378+#(:/B:PbJ4w(u2[42F!=-2Y7jX(/ s;>Yw9wG/h#9w-91-pX-+3'f)$#cd[W[p$_#py
8=7As#(:/B:7x]ImIX/HOgW-91-pX33C:U2[42/:)X:ZxR4wUHh$1cd<%X*$x++((J+5[
af!n0 $_#,HS25PxuW%wGuv7Qw(e1:p<rw+wGa$_#pH/%S9$#t032 a0#(:[B:5[
at!n> $_#p:=7d'7Qw#eh+l
TGD<mx*$]3xc:257x,\%nPd.#kS77XAaYTW-9YHzBv)*[1[Ms2;0c[o.)7w%N3D$_#+:Kg 37Qwxs257=,\%NpL.#Ks77z
$[oz=:)X1*0.p3A,AaY%S+ODfk7G=%9A270.+($xA30#(:/BY$S:W-9 -p$<6([10
oSw$2]=U$_#+H2XAm1*t'%X*$x+h:\_/[+#(:! 2Gsd):)XhL
TKV!=x*$=RW+m_\$_#pH2Xpwd:/69A2p[
a\ [X*$3Jxc[u)$GspF9A2=H+i>u25pX]w.X%2Y7.+h//TSi#=.x%2Y7jX(/ y0J8
_rX22Y7.+h$/:;7%! *x*$x+pc/V2\13w-9/-9<-)*/1e$r0p:)X5)!5p#*\:7E8
_rk 2Y7vXW$25p=jw2y72Y73,Eev2G%#(:[uj*x8
_t=.7>mdw-9 2j#t#Ump2Y7jw+m8;$_#p981jP7\V!-x*$<J+(/Z
$8mC/:)X57!V)*/ j$0kW-9/HpXj+(/x; 7Qw392\$_#py
8,\$_#+:x[dH1#(:[B+$%\v!-X*$j+4:=7zw4#(:[Z
$f9zw-9%-S<<6(/*2F9XK:)x)zX])*/ )$*ZMZbX*$b+4>*\:7b# ,bX*$=+Ue6
:7F%HKTdP*$x+p:W#'D9')6)X:Z=#f6bX*$=JW7.3P/7Qw36
:zFY#(:[B:07*F<9A2p!5,E(f2[*zw-9YHzJ<6Ma,af6\9Q3Y2>*zw-91-SB;JY
8$//uzw-91-*<#/,bcU$_#r3*\hPfw/,bcG8\/OX9M</uzw-91-77*F<DGu$_#+H2%0
oSLKin02Y7739! :ngG8<DGg8\/ox9m</U2K:)x:z>#/,%x*$]3XM*\)ngG8Q=Mg']#/,BC $_#R3*\HpFW/,BCg8\/ox6
:AF9Xdo9A2KJ<63/9][*zmzc[o.)7w ]32y7Jx(/ +$%G8:)x:zXj+#97IX9XW-91-Px-Q
$x></U#(:/B:PxuW ]3u,o#(:/B:P=-W k#u,o#(:/B:Px5W7X8u$_#3HSF+*[
+90%2l$.Kw2O.U$,<y9Rx*$<vq
$rm787Qw3e%(=XjJ:RM;'7qW(E%hT3J+)9Coh##(:[BjT3J+w9CoG)#(:[B:70.hy
8-(:9CV+9A2)!-P:-8z\#c2:)Xh$.[5'o>>M_#+:o./>mdw-910
oS[tuMP2Y7-w!N>oWy#(:[X7A-KVO9a2772)0O. $_#+Y
8p7W\t;:)Xh$8DKuMP2Y7jw;-. e\T;-912:O[29O. y7JQ
$]23>MDW-9 2Gs\%<o. Y7jw Y[n/\T;-910
o%\vu9A25<#20322Y77uhsv(=Xj,$%7D'6*9Q3Y2jm4T:)X17!y)*/1EoYsv7C$O.)7W mEo$_#UHSV(=xJ,y
82i/8to:)X)ZE#M!=72Y7763eU+50.+(s: ,4\2Q]Mg']#=!=72y7763E%vT3J+e!V(=Ee35b8!>1/tuCe1$,%w-910
oU%W-9123,\w-9 2,,\w-9 23u#(:/Z
$,u#(:/Xl,##(:[X4,##(:[Xl,,#(:/Z
$,u%w-9123,Gw-912,,Gw-9123uGw-910
oUX/:)X:$,X=%9A2p7xmfkx*$x#;FKX*$=+jm*\:P>8
_OD>2Y7jw7Rx*$3;)*/1v$)XW-912'.[5 9A2p[
a2036( 7Qwx[b+)<<6(/h$v%toQ]Mg']#;FK8!$_#l9!1:;[
aY f12Y776(eU)Oy92A/di>64R:4 2Y7jXM:v)$G-W-9\:zX;3W[x]s7Qwx!%-7iU_O4Ug6\/ox6
:]s-#(:[BE(>#M(9A2p7dy /x*$]Jx(/%S*ha;o\7:..kS77X <%3w-9%-Px3Q
$%-'57Qwx!1-pH;HC8p <%-s2odFK7DY /c2y776(E1:P<3I#8P <%JMq]mG']#;6X 4$_#,M:j:$y92CDx*$]j_O%-'5u/TUcE1l
Tdkr-x*$x+3c/J2>4\y:)X:$+T[TrX*$3Vx3SV(=xJ,:%-'6x#(:[Bj;j<6(/F0
oY922[X*$x#=2*12Y77Phu%Jt3j+W8pL60js2odFK7%t9-X*$i+PC*\:p>#o,9a270.+(SZ
$8o[299A27!v)$/%:$#D)29A20!33C/ (OX3J:=0 $_#p981jP7G;<kx*$x8
_%%0ax7Qw(e1:9HU3:KPU[Y#(:/B:Px],3:XAH%#(:/Xpwd:W-9\:z=3PW6
:z 1g20YX*$=+U)UX(J1JW-91-pHYH)92'G-#(:!1-Pj3hm9-\x7Qw*[z
$\X#(:7 :;!]_o01G6\/OX94;$_#jHUJjT3Jp(94/$_#pH$VET3Jpe94a$_#UH'1ET3Jp(6
:(\7Qw39-uG%#(:7%j9>J+*%-Ug%/tuCe1$.9k'Xx*$].PC/15v.9k'Xdi>64R:512Y7jX>(%)l
T[D<9A2K=++C[: Gozs2odFK7[P:)X:$1-W-91-7e]L:-12Y7jX(/1s(B8
_[[x*$x++(/H)*<#\9x=2Y7.+h/v+S=#=.*7;$_#+H/1t*b3WI42'G7Qw(e1H)BUq
$],(J1#(:!1-Px3lw2X ,O#(:!H-7EV)*/1E$YXf:)X:$.g=u9A2p!v+([z
$6yCFfk 2Y7jX([U+pe;w2%8/3s-w-91-pXjPM/h)07*;!-Iax7Qw*[bs7=ji:%6d\%#(:/Bj;jRhw6
:I<12W-912v0%2'9A2p!jPp2xlV0%2'9A2p!j+Cije$.Z/[* 2Y7vXM2h(OXjLY
8$u[-<u:)XhZ$Vp9!1:*7:T;m4'$_#+:]P7J9#(:/Bh*>5W2%8'/y#(:/Z
$6yC2<Rx*$x#5<fX*$]y_oY0>..kS77X3v9xw-9yh7I+U:8J:N9cdu5DI>64r:ypu,\C :)xJ(!;q
$YP4>4\W-9 Vp7'kIo8Z$_#U(/XI:U2W-9 268xF:)X:ZbVh36
:4:7Qwx[::z<,k!NM;..Ks77x;3.h$(9a2s!Rjm(J(=x3+:5Iid13w-912X0s$(9a2;!Rl([V0
o12#orX*$b++e:25PxyW[N8 37QwCe%J7<v)$/1e$S2#orX*$x+3eSuE57<D!%I2Y7jXC(vVpe8
_'wG/GsGw-91-p=jLp937A-[/%9A2p!j+Mi V$Scd[5>A$_#+HUut7<# !n3;[S#(::Z
$G42F!=-2Y7jX(2*e*Jvw[wG/h#9w-91-pX;J>(v)$Scd[W[p$_#+H/*h(buj:*8!X4\Y:)X:Zx33>IJ0
o#cd[W[p$_#p:58![7Qw(e1:(XjHW937As#(:/B:Px]3)S%S$Scd%9A2p!jJ>[/y9[
a$!n0 $_#+H/1Y$-cd<%X*$><6(/*2[42kO9A270.+(ixzHOgW-9%0
o.TO9%g($_#+H(*2642/O9A277\203x*$x+lc6
:Aa9TW-9YHz=-)*[1[Ms2;0c$o.)7w%NpD$_#r3E jT33+54>!VM/tuCe1$S2f09A2p7GDORx*$]]xP*\h7fw/Z%iG6\/OX6
:Aa9%W-9Yez<<63[9][od=Q]Mg']#/FKX*$=<6(/*2[,<w-91-97G[:)XhZ=u)*/ :L
TG\']$;/7Qw(ev2[g[T25p2Y7jXp9-\xs9w-9\H$1g;99A2p!Yq
$O.787QwW9[D D#(:'Xpwd:/69A2=X++p6
:]J=#(:!1-5IRI:],'77Qw(e12M%3=:)XjZx3l9!1hP7W2C9A2=X++>uU+l
T$299A2=B++#:xMg=#(:!%-9x])*/ :$r0p:)X55!V,w*\:7>#tR- 2Y7-Xpi/(=X-+Y
84a77Qw*[byS<<6([1268Sw-9Y57<;XW7x;j7qW3U%+P7*T;XA1pTdT;Xdi>64RY
8_ZW4KVO9A277S 0wMDv7Qw(9[Dh1#(:[2$PbJW+m8/$_#4(/1:L
T\V!kx*$33x>*\:7b#)u9A2)=j+(/1:$1:W-9 2tD#(:[Z
$MD#(:/X'8Mc$:)XhZ<#2+M8/$_#3HIXzJ#T#:)XhL
Tlk<9A2)!3u9!1:*7lkIBx*$=+39!1h)7lkIN02Y7r)*/ s$#LK:)XhZxRQ
$W#'D9:Mo)X:Z=##,x;U:09(:/Bh$-9K:)XhP748[\02Y73q
$]3U$_#+H2Vh;7G8<9A2KX++([U[Msls2odFK7k8<9a2P!;4c'Xix9xk:)x:zBjJW6
:AF9XK:)X170.+3/9][*ZMq]mG']#9,BCu$_#+h/*e9i#T[BC!/7qW(EHv$slkIN02y773H/25P=J<.K#U,O/tuCe1L
TK8<DGu$_#+H2J2[*dw-9Y:zXjPMa,af6*9Q3Y2[*zmO9A2K=<6([1[MslkIc$o.)7w%.04aY#(:7U-p0.+3/9][*zmzc$o.)7q
$x$/$_#+H/1h)>#2%.X*$x++([1v07ST[BC2Y7jX(/ :5>#2%.04$_#+H/1hsjRQ
$x$//U2W-91-pXjP:x></U2W-91-pXjP:377/7Qwpe )p=8
X256;>7d203dZjBrs79A2P[
+t'Y=O$YX#+xDzJbRS79A2P[
+t'Y=O$Y%#+xDzJbRS79A2P[
+t'Y=O$YD=%C['5</O:)X:l
!*$;5M2v+S*(c['5</o:)X:l
!*$;5M2vg;s+X%+.)#(:/z
-61'$U9pP/1Ss+X%+.)#(:/z
-61'$U9pi<9[2Q=7J064w-910
Z.[5'OX :9HS+x%+.)#(:/z
-61'$U9p3v9xs+X%+.)#(:/z
-61'$U9pmp6\2CidF$_#+Y
e$;:1KwOR4:.#SupcE2Y7JQ
H]=3g\#;201G8%-4q3X*$X8
X256;>7d;6X1g8%-4Q3x*$X8
X256;>7d;6X14.#SupcE2Y7JQ
H]=3g\#;'n0G8%-4q3X*$X8
X256;>7d\Cc['5</o:)X:l
!*$;5M2vy92Cc['5</o:)X:l
!*$;5M2[ozVQ=7J064w-9YHz<<63/Y0
Z.[5'OXAF6\2cIDf$_#r3Eu(=j7Q
H]=3g\#/,bcG8%-4q3X*$]3)*[11L
!*$;5M2[*zmzc['5</o:)X150.p(7Z
-61'$U9p'W)/T 'vg'7Qw(6
BIg8[9:%c78%/t 'VG'7Qw(6
BIg8[9:%i78%/t 'VG'7Qw(6
BIg8[9:%Pl[6*2cIDf$_#+Y
e$;:1KwO\7>p6*2CidF$_#+Y
e$;:1KwO4Ug6%-4Q3x*$X8
X256;>7dy<57g6%-4Q3x*$X8
X256;>7dT6B='..SupcE2Y7JQ
H]=3g\#;;b;G6%-4q3X*$X8
X256;>7d5OBCg6%-4Q3x*$X8
X256;>7d!(c$'5</o:)X:l
!*$;5M2v,$+Q]7J064w-910
Z.[5'OX 6rJS2x%+.)#(:/z
-61'$U9p <%js2X%+.)#(:/z
-61'$U9p <%jmQ]7J064w-910
Z.[5'OX 3.<+q]7j064W-910
Z.[5'OX gOZS2x%+.)#(:/z
-61'$U9p]56*2CidF$_#+Y
e$;:1KwO%-'56*2CidF$_#+Y
e$;:1Kw%N0D..SupcE2Y77Ph:h)t33+x6
BIg8[9:K#G6%-4q3X*$]3x>*\)k[
+t'Y=O$SLKiC$'5</O:)X170.p(7Z
-61'$U9></u2s2X%+.)#(:7%-)0.p(7Z
->md)f9['$#KV<9i(<0%W-9VSL
T%9!=x*$b+I9!1:(7%9'3x*$=J)*/1Y$Uk#+9A2S!5)*/1T$Uk$79A25!3)*/1+l
T9);B8D87Qw>e%2x4\!+w72Y73w256;>sh\-9 2>m090%x*$x8
_%5$oWy#(:'X7aSkvo9A2p7CD[o. $_#+:n2d>MDW-910
oYcvuMP2Y73w;%0oWy#(:/X3XMD:uMP*$x#5Z*.OwY#(:/Z
$:o[29o. Y7jw2*6oWy#(:[X;[#_KuMP*$x#2;=NU>MD(:/Z
$j#t9:)Xj07SV7*x*$]5xc*\:PEa; MeG8%-4q3y2jm4T:)X10!yU9!1:;tD203DzJbRS77X'w)kW-9j-p=<6(/f0
o0*K;Me2Y7;X#9C78%#(:7\hT3J+#8P4H#sS+x%+.)7WFW['$_#RCe%J9>j3p*\:p>A;fw['.#SupcE1l
T%=:)X:$U%W-9123,\w-9 2,,\w-9 0
o,XW-912,u#(:/Xl,##(:[X4,##(:[Z
$3u%w-912,u%w-912',#(:! (=xJl:3c2Y7jq
$3$;:%#(:/X'w)')T9A29!-)*/1e$Y%/!nX*$x8
_OR>2Y77ihih(=>A;OR>g8%-4Q3Y0
o+s*(9A2KX+i)': <%h+Q=7J064R:4 2y7JxcS*E)h33:4%2y77+H/*hoYwUq=7j064r:4u2Y7763e*s)HA;.udZjBrs77z
$MJ0w-91-pi3Jp2x4P7Qw*[bV0=U)*/1T$Y92(9A2KJ+J(i: v+S+Q=7J064R:%-'77qW(Euv9I]Q
$%-'57Qwx/b:pe]u(i: v+SuQ=7J064R:%-'pu#(:7\:zH]+p8p <%jmQ=7J064R:%-'7u#(:[b:pJ;)$/1y$y92CDx*$X+PY
8pu\-#(:/Bh)<RWUw[P$_#+:\.\ ,#(:[Bj)xu)*/1E$Y922/X*$x8
_O\7i77Qw(9IitX#(:'B)Pj3)*/1t$,*)[9A2p79FU9A2=J8
_7.x*$=+U9!1:(7\D'X22Y7-)$/%:$#D)29A2)!ri>uvH00A+3$xz/Y#(:[2$PbJQ
$];787Qw*/bH0B;+E:v2[yz/:)X:ZxJ3#SH:(I;W%%0ax7Qw(e1:7=rL)'1s$SDK%%X*$x8
_%w72Y75XCs/H5Br)*/1+$+T[T9A2=X++#:1eS7\['K7d:7qW(E*)P=]W9x=:$_#+h/U)7X3q
$*7;X7Qw*/b:p<U,)2xMP7Qwx/b:5i-Hp8pmp6\2CidFK7%!(9a2kx++(/H$V,$+q=7j064r:]4:Y]j_O]4:.#SupcE1$r[W-9\Hz$j+>*\:pe8
_r-x*$j++(/ (=x3l:0>2Y7UX(i1Jt3jP392m$_#pH2*2<9[2:)X17=;,P/: <9[2q=7j064r:]-uG%QR(8pi<9[2Q=7J064RY
8=:$_#pHS1hs7[D<9A2KX+3M'*yOy[D<c['5</ox9=H$_#+:5%2Y7jX#iz
$xX#(:[Bv9E5IwS25PxuW[[x*$$+432*:7E<6(/*2M0S$:)X5P!J+)'Fh07dmz9A2p[
a;i-X*$x#t%rm2Y7jXC$1s07*;!-Ia77Qw3*\:5X#toW3l[b#(:[25PbJQ
$]P7X,gf:)X:Z=#;;M4'$_#+HIJ26+[D:)X:Zb-4c9p(3%[w-91-pX;iWiz
$69GF9[x*$x#t<K3(57Qw3*\:5X#[2Y.MJ7QwC2j-)i#toW7U$_#jHU25P=3Q
$]P7J9DW-9*-0$-49!1:97*;!X0L$_#3H(1v)7'kA9A2K>A;;B;g8%-4Q3Y2:yzm:)X10xJxeS: :YZMq=7j064ry
86u,7QwCix3VU#(:'V2:yzmUw[2Y7jw;%Coh##(:[H:L
T'kIo8Z$_#pe/XI:U2W-9j-(>Yi9!1)(7*5I-x*$x+p('1t$U'W-9 0
o1%ta512Y7-XW/hHt3j+)9=L6/[P:)XvZ$33#93(j1jw-9%:z$rw'N8 37Qw(6
:/a4D=:)XjZj<_(/F2[oC;f9A2p!rw9N8 37Qw(eh2G42F'k>2Y7jX>uz
$x42F'k>2Y7jX(i/2[42F'k>2Y7jX($v2842F'k>2Y73w'wG/h#9w-91-S<8
_[wG/h#9w-91-pJ#/!n378+#(:/B:P$#)!n378+#(:[Bh$#cd[W[p$_#3y
8=7As#(:/BSs70#zkx*$x++P:XAHOgW-91-pirw'wGuv7Qw(e/)l
T0#zBp2Y7jX(i/2[42kO9A2p!jJp9[7As#(:[XIw)<;Z*X*$=8
_2wGav7Qw39['W)#(:[Xf:S'd39A27B#O;K6!57Qw36
:Aa9TW-9YaA9ts+X%+.)7w%nPd$_#R%N0D.#SupcE1$S2f09A2p7GDORx*$=<6([10
oS2KF9A270.+3/xA3S#(:[25PxuW%R22Y7jX)9>\$_#jH'25P=3Q
$K,;6.[K:)X:Z$#YT->p$_#639=av0#(:[Bh$\T#+9A25<8
_+m_\$_#3H$%+$+T[TK-2Y7.+h[%:0[
a\ [X*$3Jxc2Ht$GspF9A2)!]P3:25pX]w.X%2Y7.+h/%J)B-wrX22Y7.+hs%s7[
a!'[X*$b+3e$V(=xJ,:03h$_#63EJv7j<6([H2\s3w-9 (=X3P:]6'$_#+y
8='$_#3w/ :L
T: 0wMDv7Qw397ZW4KVO9A2p7\V!5x*$$+UP*::)=# 0W32Y7;X3'v(OX-HY
8[Dhs#(:SBt00a+((X(>7Qw>[1:pXj+:5_2Y73w9Jx*$=8
_.Jx*$x#2+M8;$_#pHIX'8Mcf:)X)Z<#  =.7$_#py
8#u/7QwCev:)0.+($x</UZW-9U-SeUL9!1HS7lkIN02Y7;XM(*Vt333:=#u$_#Ph/js0[
a#,x;U UD(:/B:Pb5+e98<j/z59\A2p!3w,Bp2Y7-Xp//(=XjJ:.04V7QwMeUe(><6([U0
o*ZMZ%X*$j+3#$H(==;W+.P2y73x(2/+$.0k:)x:zeru:k#u$_#R%.dZjBrs77z
$>*zw-91-5i5H:]3U,9#(:/BE5<]W%.04/7Qwxk#u,6\2CidFK7k8<d02y7Jx3/FhL
T*F<DGu$_#+H(*t*7G8<DGu$_#r%.04a6\2cIDfk7K8<DGu$_#+H'H)97*FO9A2p!]4C6
:AFY#(:7><.#sUPCe1$\l;:)x:zBUH)9$//UDW-91-;bR,:k#u,y#(:7></u/  'vg']8
_U.04v7Qw(e :;=#t[bc!V7Qw(efT(>#/,bc!V7Qwxk#u,o/  'vg']#9,bc!V7Qw(e%VS$8
_ ]32Y7jX(/ +$%g8:)X:ZxJ+#2V2j.0kI9A2p!j+3sf2jslkI9A2p!j+([*)l
TST[BC!$_#+H/1:7b;W k#u,o#(:/B:P=-l:377/7Qw>e1TpH#o wp2y7Vx($1SL
Td9%Nx*$x#;u%g2Y7jwOo>!j7Qw(9E!,7Qw(6
:fa,#(:/Z
$:9hD:)X:Z=#d[O8z$_#p9!1h57'F2-x*$<JW;-$ $_#4(6
:3X.ZW-9v:$80;[9A20X#5[b32Y7r+:=gAw##(:[Z
->md)f9$'$.KV<9i(<0%W-9VSL
T%9!=x*$b+I9!1:(7%9'3x*$=Jx3*\Y$Uk#+9A2S!5)*/1T$Uk$79A25!3P9!v0
o+<5<W.z$_#IH'X/H#$ !xX*$=#t'Y=O[/w(:/XOw-kvo9A2p[
a/']mdV7QwC98![\t;:)X:$42fuMP2Y7jwz*.oWy#(:/Z
$v4t90%x*$=#5obmdV7Qw(96/Wyp90%A2p7'D'X2oWyQw(6
:IT8kvo9A277[/+>0oWyQw(9738az90%A2p[
a2+Mm2Y7-4:x.fT7Qwx2bst3j+#8p'W)/T 'vg']#203$2Y774h(v+t3j+#8p'W)/T 'vg']#203m2Y75X32v(=Xj,Y
82i/8to:)X)ZE#M!=72Y77Jhi25pX]_OD8Zj6*2CidFK7%#+xX*$]Y)*/1eOy%#+XdijBrs77xl37Qw(6
:437Qw(9IL87Qw39CL87Qw39I4$_#+y
8C4$_#+:rcz$_#p:dcz$_#p:rcl$_#+y
8C437Qw(9IL[7Qw(9CL[7Qw(9I4[7Qw(6
:4,S#(:/Xl,,gW-912,u%/:)X:$Y%/:)X1)!J)*/1voYD=%C$'5</OX6
: ,S#(:[BST3J+e9EL$_#63*\:P>#O256'$_#p:x.f:0:W-9YyzH<6(/f$v%toQ]7J064RY
8-'dX#(:7\:ZhJ3mI\ <%H+q]7j064r:4 2y7Jx)'%2mb#(:7\:zXvHMi: MB/T 'vg']#\m9A2K33X('fsOyW3Q]7J064RY
8,)x7Qw3e V7B#M(9A2p7dy /x*$]3x#(FhoYDY /DIJbRS77X <%3w-91-)EuQ
$%-'57Qwx!1-p<v+>$: v+SuQ]7J064R:%-'pu#(:71-p$A;O\7:,6*2CidFK7DY [c2y75+(/1:$y92CDx*$X+PE(j0
oYZ![9A2p!;iE'/2>4\y:)X:$.k#+\X*$3Jx('VS779VtJI2Y7.,huhyt3j+#6
: <%*+:)X57!JI9!1hP7dy ] 2Y73X3s*23.<+:)X1)!y+e:25Pxy_or$(P6*2cIDfk7%t9-X*$3-X)21Tt3j+E6
:fF7Qw3e%(=XjJ:=g;J0#(:'BE00a+c/XzV0*W-9f-5H<_([*289dw-9 (OX-+Y
8$>h##(:/XAV9gW-912[yz/[9A2p7G;<kp2Y7vXW'j(=X3+Y
8>7j7Qw(9-D D#(:!1-P$;h>[X4<M:[:)X5P!JpP9$PWD:w-91-pXv,3(j0
o#:$%x.3$_#+H:*2t%[+:)X:Zx],m2X(J10W-9\:z=34M(xp -#(:! -7jyU36
:MP7Qwx[1VOy$+Q]7J064R:]4:$_#R*/byS>3u$%$mp6*2CidFK7$$:)xHzJ]4C*\:7X#Tr5x*$3]XWi25p=-q
$r4:$_#r(8Pl\x/t 'VG']8
_r-x*$=+je2V(=x3l:]4/$_#pH[V(=x-+:0>2Y7.3h/U(=X3P:]4A$_#63E v)$<6([ 0
o0$W-9 2<9[2:)X17ju4(/: <9[2q]7j064r:512y73xc2Vt$12k:)x1p!-JM$*$v12kQ]7J064RY
8$P/1Sw-9Y:Oy*y<57g6%-4Q3Y0
o13W-91-7BUL:5%2Y7jX(2vy$-JW-9/-7eji9!1:(70P:)XjZh3j9!1:9[
a\9x=2Y7.+h/ +7<#=.*7;$_#6(E1:7j5p39$]t%[w-91-pXrJM(x ,O#(:! -5><6(/H0
oYXf:)X57!54c*\:P>#t%rm2Y73X(/v26yCFfk 2Y7jX3(fs9B#toW3l[b#(:[B+*hy,9!1:9[
atoW3l[-#(:/B:P<#;;M4'$_#p:]-;a7Qw(9p(3%[w-91-pXv33:z
$3y<= 5x*$j+h#225PxuW2B>/t=#(:S2$PxyW2B>/tB#(:[25PxyWt]6D\%#(:/Z
$6yC2<9A2==+up*\:5X#toW7UV7Qw(9$ h%z=:)X:$8Z*:)X1*tD5<fDIJbRS77Z
$:yzm:)X1sx;x)I: :YZMq]7j064r:ypu,\C :)xJ0!33:yp4>4\w-9 vP7'KiO8z$_#PE/z
$68xD:)XvT3Jpc9$3,-#(:!1-)b],w9C3$_#+H(H:(7[=2F=:$_#UHUFY0$<6(/*0
o1%ta5 2Y7jw[*7;p7Qw3(by0Hvw'N8 37Qw3ef:(i<6(/*2,12#ORx*$<+I#225PxyQ
$-g7V,#(:2BS0<y)$/1E$S2#orX*$jypH:V2toC;f9A2=i+uW$%0
oS2K09A2Ks2k0c$'5</ox9>!VM#(:7>!/m/T 'vg']#/Z-.2Y7jw%NpL$_#l9!1h7[
a/Zbi2Y7Y)*/ H$S%/:)XhT3J+w9>Lt7Qw(ej2[D#(:$BhT3Jp36
:Am1*t'bX*$x+h:\_/[+#(:!1-*<#$%%22Y73X(2xOw4\W-9 szBvq
$=.\ 7QwCe*V079VtJ>P$_#+H[%h0[
a\ [X*$3JxmU1S$GspF9A2==+i>(25pXYw.X%2Y7.+h//H77$299A2==+i(:z
$\13w-9f-pH3)*/ :$r0p:)X55!u,)*\:7>#!%[X*$3;x#*\:7=#t;xX*$33j(E 0
o1sW-9%e)Hjq
$j[dH\T;:)Xh$%\v!O. $_#p:=.7g7Qw)e V*0A+>/xzw40W-9 -00A+Ciz
$8mC/:)XvZIR)$/1E$0kW-9/HpXj+(/x; 7Qw392\$_#py
8,\$_#+:x[dH1#(:[B+$%\v!-X*$j+4:=7zw4#(:[Z
$f9zw-9/-7=;49!1:*7LKibX*$=+H($j(=X3i:.04a9#(:[BYPI5)*/ S$#lk:)x:ze]H)[z
$h*S*<JC Y7jX(/%H(=##,x;U:09(:/Bh$*Z;:)XSZ=33P*\:P>#8<Dp2y73x)/*YT3Jp>6
:</U2;:)XhZ$Jj)*\:7h# ,%x*$X+,#2jH$4L2a%_4V_#+H/1j7I3W!.7>v8<y-91-7[
at[bX*$x+hwI/2[*zw-9Yaf6*2CidFK7k8<9a2P!;he2Xix9xk:)x:z$YJY
8></uzw-9Yaf9xs2X%+.)7wu.04/7qW(E1:PhR3)9$//U2K:)x:ze#/,BC!/7qWXK#U,O/t 'VG']8
_U.04A9#(:/Bt7buW2-p2Y7jX)$vs$SL;:)X1[*/t 'VG']#9,%x*$X+3)sj0
o.0Ki%X*$x+he$XAF9X;:)X1[*ZMq]7j064r:o#u,y#(:/b:pXv4M2xix9xDO9a2P!]Q
$K#U,ODW-9Yaf9xDQ]7J064R:O#U,ODW-91-(=-J:x$/$_#+H/1h97S/,9A2p!j+((v0
o%*f<dX*$x++(/ 2jslkI9A20!U49!1:07ST[BC!$_#+H/1:77S/,BC!$_#+H/1h)j8
_7X8u$_#4H/*)5742!%X*$<++Wu%0
Z\T;9rX(8%# uM02309)f9A20H8
_fo8Z$_#UH:25PxuWfo=F$_#pH/ (=<#mUw[2y7;x)*\:PI#mU5E2y7-x3[250[
aY9Y07w##(::Bj$-c R=8'$_#p:]=3g\g*.)X:$\TfuMP2Y7jq
$K=I>MDW-9%2hoG90%x*$x##Z-mdV7Qw39G(W\t;:)X:L
Td#0o. $_#p:YPU>MDW-912:-t;8o. Y7jw;N='t\t;-910
o.<5uMP2Y73w'k[N/\t;-912j8\%<o. Y7jq
$x[d>7QwCix'w)<W-9j-50.+((x'w)*W-9v-*B<6(/f2jm49:)XYZx3)*/1EL
T<T<y.F$_#3H(X4H#sW-9*-00.+((xlH#sW-9h-9$Y)*/1e$,%W-910
oU%W-9123,\w-9 2,,\w-9 23u#(:/Z
$,u#(:/Xl,##(:[X4,##(:[Xl,,#(:/Z
$,u%w-9123,Gw-912,,Gw-9123uGw-910
oUX/:)X:$,X=%9A2p7xmfkx*$x#;FKX*$b+jwS25PxyQ
$%cA$_#pHIV(=xJl:3i2Y7.P9!1:*74T'y72Y73w mE3tD#(:2BjT3J+#6
: 3Scd:)X:L
T92A/x*$x+I)UFS$G3W-91-9<-3:r,h$_#6(E1j*7Wu:)X5P!J3>$*0
oG;W-9\Hz<3uW9,)x7Qw(e1+0<-wI/x*$x#;6x12Y7.uh:h0
oY9239A2p!3uC:x <%-W-9\:zX-+Cix <%JM:)X55!J,e2X <%3M:)XhsxJ+(/Z
$v+SuI9A2p!3H(u*2v9$F:)X:Z=R+P'XOH#9W-9\:zB3w6m_\37Qw3*\:7X8
_O\7ip7Qw)e%Jp><6(/j2v+ST39A25!v+W'xl60JW-9\Hz<]u3*\:pi#=F]2:$_#pHU/vT3J+w6
:l600W-9 -7JYi9!1:(748:)XhZb<6(/*28o[299A2p7\;9]x*$h+4>:u+7<<_([*0
o#Z;:)XhTtJU(9$>h##(:/B))h343: 2[yz/:)X:$SDK%-X*$x8
_%%0av7Qw(9>7j7Qw(9-D D#(:!1-7hRh:=_;[%T5:)XhZ=V3c6
:(J1JW-91-pB5P#:xIT%[+:)X5P!J+((*Y7>#) 532Y7.+h/1y(BY3:\_/$_#63E1:9b5Q
$012Y7jX(:%+97%!(9A2p!j+)$xMg7Qw*[bT;iv)*/ :$r0W-9%-5<UJ9!1H*[
a!%9A2*!5)*/ H$U$/:)X5s!ul9!1h77<!:)XhZ$uW6B='$_#hw2*:P[
a$(9A27!5HW:xlgx#(:!1-7=-4:5gU$_#+HUuY7<#$39A2p[
a$c9A2p!3u:-12Y73)*/ :$-3W-9%-(<r)*/1+$G<2'9A2=X++(2UJl
T%\9X=2Y7jX(/fTpi]wODG2Y7.4h'/+t3j+#9p4x7Qw*[bH)<<6(/h26s%9:)X:Z=3he6
:IV40=%[X*$x#toW3l[b#(:/XIV40=%-X*$x+p>S*2v8t! 9A2p!rHY
8$PGo#(:[BSs0.+3/X T,s$:)XhZh;)*/%:$,D)Fx=2Y7jX([Uyp>#t<K3(77QwWe TS0A+(sz
$69GF9'x*$=+49!1jP7:T;m4'$_#+:]P7J9#(:/XIV4sKo9A2p[
atoW7U37Qw(96ud7Qwxc6ud#/ <a1-(]#5OBC2y7V4>E 2:9XW-9%Y7!yly
86 ,7QwC2 -*>#5obcOH##(:212:yx9!=x*$=y+:Y04>4\W-9 Vp[
at;dg2Y7Y)*/ J$.'M[9A2p!jLp2fV$U'W-9 2G,**'/x*$h++)I*jT3J+w6
:;3.H$39A27!-Ppsh2x0S$(9A27i+P($j2GoC;f9A2p!j+([j)*70D!%I2Y7;X>i2$pX]q
$Kg7V,#(:/B+$02#orX*$x+l:58!X1g/:)Xh$-cd[5>A$_#+y
8>7A-[/%9A2p7\#z-=a[7Qw39=7A-C 69A2770#z-8Z<7Qw(6
:AHO0#+\X*$x#)!n378+#(:[Bh$#cd[W[p$_#3:58![7Qw36
:/HOgW-912[42/:)X:$1cd<%X*$x+Im937A9dw-91-p<vq
$K8!/Y#(:/B:(<# !n>2Y73w2mE(vo<w-9 0
oS2K09A27!;HE*\:7X#/Z%.2Y73XM2h(=X3+:Kg/w7Qw(9>!v,#(:[25P=JQ
$KgU37Qw3*\:7X#/FKX*$=<6(/*2[,<w-91-97G[:)XtZb<6([ 0
oSw$2]=U$_#+H2Xp -gY:)X577[/O*x*$=+p:O.787QwCiz
$8m:[:)X)ZI-4:\.\ S9W-9\:z=-+p6
:]J=#(:!1-sI34c9,'7,#(:[BST3J+e9,'57Qw*/b:)=3wrX22Y7.Ph$fsl
T%! *x*$x+p)(*2\13w-9f-pH3)*/ :$U$$39A2==+u9!1Hp7$F39A2=B+Pp[25p=Yq
$0>h$_#6mEF(=x3p:]6'$_#U($B+$1sW-9%V;J;+Y
8_ZW4KVO9A277S 0wMDv7Qw39[Dh1#(:2Bj00a+>[Xzw40W-9U-7Br)$/%yl
T\V!kx*$>+jP*::PE#)u9A2)=j+(/1:$1:W-9 2tD#(:[Z
$MD#(:/X'8Mc$:)XhZ<#2+M8/$_#3HIXzJ#T#:)XhL
Tlk<9A25!UJ9!1:(7lkIBx*$=+j3I25P=;W,BC!/7Qw3eUV9$-)*/ )$#LK:)XhZx3Iy
88<j/z[I%A2p!j+C21V$4L2ab6(<_#+H[X</Y#(:2B+Pj<6(/H2f9x;:)XhZI349!1hs[
a8<dg $_#pHUHY9b<6([u28*dw-9 -p=vw2-02Y7jX#i%2[*zw-91-pX33Y
8M</7Qw(e%T9$#t[bcU$_#+H(%+;7G8<D02Y73)*/ :$\LKibX*$x+p(( 0
o.0Kin02Y7jX#$*V$SLKin02Y7-)*/ :$\LKin02Y7jXCsUy$.0;:)X:ZERUy
8><v7Qw(e1:7J#9,%X*$x+Uw2J26-zmO9A2p!]up(xAF9X;:)XhT3Jp(6
:OF9X;:)X:Z=J,39$//u2;:)X:ZEuje9></u2;:)XjT3Jp(9M</u2;:)X:Zby3)6
:'6-#(:/B:P=RW k#2Y7jX(/1e9<#22-04$_#+H/1h*E#2%.04$_#+H/1:7I;Q
$x$//U2W-91-pXjPCux'[*ZMZ9A2p!j+3'h2'%Ck:)X)$)s#o9A2S[
+90%2l$0*2:]md/7%)6*I2Y7riY
8Ioh##(:'BST3J+w9IoG)#(:[B:70.4:DM787qWmEJ(=xJj:DM;'7qWcE hT3RQ
$\23/4T :)XSZb#f!=4zH%#(:[XIg8[9%f,*$x#90-mdV7Qw(6
:Ag.kvo9A257CD%o. $_#+:Wg/>MDW-912A0t90%x*$x8
_Ow.oWy#(:[X3V9kvo9A2p7'F0%OoWyQw(96!G%<90%A2p[
at9YmdV7Qw39=a8az90%A2p7S5+>0oWyQw(6
:'8MkW-9%+$%TO99A29!v)*/1e$%TO29A20!]4p*\:pe#203m2Y75X32v(=Xj,Y
82i/8to:)X)ZE#M!=72Y7UXp*\:pe#=!=72Y7Y)*/1e$,%W-910
oU%W-9123,\w-9 2,,\w-9 23u#(:/Z
$,u#(:/Xl,##(:[X4,##(:[Xl,,#(:/Z
$,u%w-9123,Gw-912,,Gw-9123uGw-910
oUX/:)X:$,X=%9A2p7xmfkx*$x#;FKX*$b+j>[25PxyQ
$%cA$_#pH:25PxyW7Rx*$33)*/1v$)*$;xX*$=#2036( 7Qw)e/(=Xj,Y
8-'dX#(:!1-)x-W.[x*$x+hc'X]57Qw*/b:7<#\m9A2==++C(/0
oG;f:)XhZ=ypc9C:$_#+:%-'P7Qw3efe;=#;6x 2Y7jX>(*0
oY92c9A2=X+P)2U2v+S+I9A2p!jH:%-'7U#(:21:PxJWO\7J,7Qw(e V;$8
_OB4/$_#+HU/v5h#9!=-2Y7jw2o8Z<7Qw*/b:5<vP:\.\ ,#(:!F-s>5)*/1EL
Tdy ]12Y7.Ph//(=X3+:%-'6=#(:[Bh*I#=2*12Y7vXE/hst3j+E9Iit-#(:!%-9$Jj9!1:*[
aO,9A27!-)*/1T$#2$ *X*$b+,P*::5x# o*$2Y7]XC:2$p=Uw+Bp2Y73)$/%:l
T**!=x*$x#/ob>2Y7jw%%0ax7Qw(9> /sdw-9/-(B5)*/ :l
TG# 9A2p79VtJx*$3Jx(2uY)=#M6M_\$_#6(E1h07*y0J_2Y7jX(//e7e5q
$=_;[%T5:)X:ZhuW9X=:$_#+H/FEs$#) 532Y7.+h[ +Se#YT-X*$33x3UHj7[
a!(9A27XYw2012Y7.+h2UV7B#!'9A27!;,p'25p=jw20=2Y7.,h$v(=X3uY
84/$_#pH$HY00.+3SXI\-#(:[Bh00.+c/XM[7Qw*ub:S0.+3[xI\S#(:! -7>Vh9!1h7[
a)R9A2779k'Xx*$=VUe/12GX#(:[Bj9<uW'N02Y7jXC$UT([
a$39A2p!3uWsx;57Qw(e1y0$#f(9A2)!3,(:25pXUw[[x*$b+I3$25Px5Q
$42'g7Qw*/b:7<34:r,(J1#(:!1-Px33)[ 26g<2'9A2p!j+p$Ue$YXd:)X57!-l9!1:*[
a;i-X*$33x)I%(=xJl:]>l>7Qw3e1:07*;!-Ia77Qw(e e;H5u:]P7X,gU:)XhZ<yIe(25Px5Q
$]P7X,gf:)X:ZxJ4:%6d\%#(:[XI<12W-912v0%2'9A2p!j+>u sl
T%;9R7;$_#3H2FYT3J+w9$u[-<P:)XvTtJ+e9$u[-<u:)XhT3J+e9_i:m$2:)X:L
T*;!X02Y7.Ph'v(=X-+:]P7J9DW-9126yC2<Rx*$x#5<fX*$]/5<f$G89,+H$y0
o8DKi9A2SX;X)ix3V9X9!=X*$bRx3UX3VUk#+9A27>jw;BCoh##(:[H:L
T*5INx*$><6([%268xF:)X5P!VU#(*2,8#(:/BE*xuW'R$>GX#(:'B);$Rh9!1:([
a$F];;77Qw(93(j1jw-9 ez$ri>9=!hy%w-9 -;XUJ9!1:(7x$zwpL$_#4H:FYT3J+e6
:/a4D=:)XYZhR4e*::PE#/ZWPl$_#3e[BS07<D!%I2Y7.Jh'*T5[
a/Zb.2Y73X>sU(=X3+:Kg w7Qw3e/VS0.+3/xAa-TW-912[od=:)XvT3Jp36
:Aa9%W-9h(=X3P:KiA$_#p9!1:(7G=99A2p!5w%Jx*$I+p9!1h7[
a/.5$Ig9#(:/BY$+:f%\X*$3JxeIX;[Y<W-9 -p$#90W[2Y73ih'/0
o#T[T9A25!ULp9-D DGy:)X:Z=-pP6
:]J=#(:!1-sjJI:47h37Qw*[bs)e<6(/h2M%-w-9\:zXvP394't7Qw*[bspH8
_r5 2Y7]X(: (=X3+:03h$_#6cE*E90.+3SXM[=#(:!u-;0.+3[XI:%#(:! tP!3Q
$572Y7-,>:10
od\v!O. $_#p:x[dH\T;:)Xh$#T#'9A29!3LE*::)X# 0W32Y73Xp*::5<8
_+m8a$_#lH$V(oxJ,:*m2Y7vP(/1:pX#$T9A277<[:)XhL
TW[:)X:$%\v!5X*$=+4:x[dH-#(:UB+$#s 0WX*$=8
_,B02Y73XW:%(=XjJ:.04/7QwW*\:7H#8<dgU$_#j9!1h)7\8<9A2p!],)sz
$h*S*<JC Y7jX(/%H(=##,x;U:09(:/Bh$*Z;:)X+Zx],9!1:*7lkI%x*$<+jw$25P=VQ
$.04aY#(:IBt(I<6([/28*dw-91-;e5L:W#'DY:Mo)X:ZxJU3$ 2h*S*Oy2PY7jX36
:IX9#(:/BY(<VW%.02Y7jX(/ s$\LK:)X:Zj5l)9$//uzw-91-9>Uq
$K#U,9#(:[25P=JWU.04/7Qw(e1:pHr3)9$//u2k:)X:ZE#/,bc!/7QwM*\:7X8
_U.04A9#(:/Bt7buW2-p2Y7jX)$vs$SL;:)X:ZxJp>9M<v7Qw(eUy*$8
_2-04v7Qw(ejV(7G8<Dp2Y73)*/ :$\LKi%X*$x++(//+s$#t[bc!V7Qw(ef0
oSLKinP2Y7;)*/ :$\LKinP2Y7jXW[%T$%*f:)X:ZxJp)97af7Qw(e1:perq
$x$//U#(:/B:Px3W k#u,7Qwpe*+t3j+p97ix9xD:)X:ZxJ+397af9xD:)X:ZxJp>UZ
$'%Ck:)X)$)s#o9A2S[
+t'Y=O$9cdu5DzJj;v7Ce*P[
+t'Y=O$9cdu5DzJj;S7)10
Z.[5'OX4H#sS+xu).)q3HSH(=>8
X256;>792A/dZjJ;s7)1-)$jq
H]=3g\#;o\7:.#s3mCe*P[
+t'Y=O$G;S+xu).)q6>E%SL
!*$;5M2[ozVQ=7)S64(3eU+pX<63/z
-61'$U9></6\2MudFY=<6M6
BIg8[9:K#U,9/  UuG'_3x3*\hP[
+t'Y=O$SLKin0G8%;3q3ahZhVl9!1hP[
+t'Y=O$8Z*q=7)s64(e6
BIg8[9:01G8%;3q3a:ZxV3>SZ
-61'$U9pi<9[2Q=7)S64((6
BIg8[9:%PpJxXS+xu).)q+y
e$;:1KwO%Ia.#S3McE*p[
+t'Y=O$YwUq=7)s64((6
BIg8[9:%PpJb/  UuG'_JQ
H]=3g\#;201G8%;3q3a:L
!KVO*I28%[Y 9[oW9#=9\2l$_#4>6
:l>4\W-91-)0.+(2xl>14W-91-)H3)*2x4>4\W-91-00.+(2x4>14W-9%-7=<6(/v0
o+<5<W.z$_#IH'X/H#$ !xX*$=#t'Y=O[/w(:/XOw-kvo9A2p[
a/']mdV7QwC98![\t;:)X:$42fuMP2Y7jwz*.oWy#(:/Z
$v4t90%x*$=#5obmdV7Qw(96/Wyp90%A2p7'D'X2oWyQw(6
:IT8kvo9A277[/+>0oWyQw(9738az90%A2p[
a2+Mm2Y7-4:x.fT7Qwx2bJt3j+#8%-(0.P(qU[/429'c['SJtoQ3Y2jm4T:)X10!yU9!1:;t-xw*\hP5;<<WgOg6\2mU.f.)7W MeO$_#Hh/ (=Xj,Y
82i/8to:)X)ZE#M!=72Y77m!=7g8%;3Q3Y234\2:)X1s!;U9!1:*3Jx('2595;<<WgOg6\2mUDfk7%=:)X:L
Tx=:)X:$,% :)Xh$U% :)Xh$,XW-910
oUXW-9123u\w-9 2,u\w-9 23u%w-910
oUX=:)X:$,%/:)X:$U%/:)X:$,X/:)X:L
Txm%9A2p7%mfkx*$x#Mir>2Y7jwOR>2Y77uh$*Vt3j+E!p 3s/  uUg']8
_OD>2Y73Xpi25pXYw7]=3j7Qw397d'8<[:)x19!-)*/1eOB+J9! :-J,k!NM;.#S3MmEg']#;fk8!$_#+Y
8EL$_#63*\:P>8
_6X;:$_#r6x;:.#s3mCe1$g3w-91-9xR,:4%2y776(E1SoYwUq=7)s64r:4u2Y77\Mc['SJ/ox6
:]s-#(:[25PbJWI/x*$=+,([25PxuWO\7:$_#r*/B:Pb;438P <%JS+xu).)7Wo\7h$_#+h/ J($8
_O\7J$_#r*/B))ba;o\7j.#s3mCe1$y92(Dx*$].+h/ T5$A;O\7:,6\2MudFK7DY [c2y7uUm$12V+sUi9a2=x++3I*hL
Tdkr-x*$x+pw2 2>4\y:)X:Z=RjP9-D D%w-9 -5=<6(/h2v+ST(9A2;!ULp*\:7=8
_O\7i77Qw*'bJ00.+3/xl60JW-9f-9H-)*/ J$,*)[9A2==+3)s25p=jw7.x*$=+U9!1:([
a Z57($_#+:=P(67Qw>evs)JrPp*::7i# <%X*$=<_('126/C :)X:ZjVI3I S7[
a/ob>2Y7jw%%0ax7Qw(9> /sdw-9/-(B5)*/ :$Sc2:)X:L
T9VtJx*$3Jx3IXz 1g20YX*$x+,mUH2t%[+:)X:ZxR,eSX(J10W-9\:zX-3p6
:p -#(:! -Px5U)94:$_#!(C['sj/O:]4:$_#r#E h)0.+(I: 6rJS+xu).)7Wr5x*$=+,3I25PjJQ
$]4;$_#6)Eu(=x3p:032Y73XW225p=Yw2032Y7.4h$25pB3wrkx*$<+39!1h7[
atRKX*$3uxm[25P=-W90x*$=+hw9-uG%#(:7 Y;jJ+*[JEsxe35b8!>1/  UuG']#T6B='$_#R3i1VOy*y<57g8%;3Q3Y0
o1JW-91-07[D<9A2p!-iC9$;A9#(:/B:7>J4:5 2Y7jq
$5%2Y7jXM$x/P7Qw3*\:7X#f39A25!U4p*\:p<#\9x=2Y7.+h/ V(H8
_f42'G7Qw(e1:)$U,:],(J1#(:/B:PjJ+m9p4A7Qw*ibJ)<<6(/f2vu0w-9\Hz=v49!1:*[
at%rm2Y7jX>[ V$.D#[r>h$_#+:]P7X,gU:)X:$.D#[r>/$_#+H/1+L
Td50072Y7jXp2xI<12W-912v0%2'9A2p!j+p(U23y<= 5x*$x++(2Z
$,y<= 5x*$x++39$u[-<P:)XvTtJ+e9$u[-<u:)XhT3J+e9_i:m$2:)X:L
T*;!X02Y7.P9!1Jp7*;!X0 $_#+:]P7J9%W-912:9hw-9Y3///  uUg']8
_;%04$_74>:Bho<V'mA07a\[S+xu).)7W;BC2Y7-H3ehV)$Yw;%C2Y7-H3ehV)$Yw;%04>4\w-9 yl
T';Io8Z$_#pe/X3/Uk#+9A27>jw2yC!$_#+H//268xF:)X:ZxVU)IZ
$,8#(:[X;3.H$(9A2)!jHp$%(=XjJ:5iID13W-9 -5=rLE93(j1jw-9 Tz=jJ)6
:;a4D=:)XhZE3p9!1hP70D!%I2Y7;X3i (OXj,:Kg7V,#(:/B+$02#orX*$x+ly
8=7A-[/%9A2770#z-=a[7Qw(9>7A-[/%9A2p7\#z-=a[7Qw36
:;HO0#+\X*$=#f!n378+#(:/XAHO0#+\X*$x#)!n378+#(:[BhL
T\#z-8Z<7QwM9=7As#(:[X/HOgW-912[42/:)X:L
T[#zBp2Y7jX>ux/HOZ;:)X:ZxRI:K8!/Y#(:/B:(<# !n>2Y73q
$].fTY2):)XhL
TGD<mx*$]gd<MDzJj;S77XaAytw-9yAa9TS+xu).)7W%N3D$_#+:Kg 37Qw3*\:7X8
_%N0L$_#p9!1hP7G=%9A270.+($xA30#(:/BY$S:W-9*-50.+3[z
$[g[T2502Y7jX)9-\xs9w-9\H$1g;99A27!3wUm8Z$_#UP6
:zwd:W-9U-(Brw6m_\[+#(:!1-7bJ4y
8,'77Qw*/b)pH#\ [i2Y73X>*\:p>#\ 'X*$3Jx(: h$rs):)X57!]4y
8Imj0#(:/Bh*xRWr5 2Y7]X(: (=X3+:d4;77Qw*[bJt3jP(94/77Qw*'bH0=<6([h0
orgp:)X5s!])*/ h$.'2:)Xh;x+3:572Y7rJM:10
od\v!O. $_#p:x[dH\T;:)Xh$#T#'9A29!-4981s77\V!-x*$j+pcI2$Pb5Q
$=.7[7QwEe*+tTj+#92o$_#I3/1:PxJW'Jx*$=#)T9A27[
a\T9A2p7S 0w=2Y73Xp97ZW40w-9U-07\2+m82Y73q
$.0U$_#3H2Jv70.+($X</UZW-9%-0X],9!1HS7lkIN02Y7-Xp/fet3jPM9[</7qW3E1t;E8
_,Bp2Y7;X)2hHt3j+W9#u,y#(:'B+PE])*/ )$*ZMZ%X*$b+4((F(=x33:=# $_#Ph/*e;[
a#,x;U UD(:/B:Pb5+e98<j/z59\A2p!3q
$]3U$_#+H(Vj$SLK:)X1[*ZS+xu).)7WU.02Y7jXC$jy$.0KibX*$x+,cIF0
oSLKibX*$]g8<d0G8%;3q3y2>*zm<9A2p!3+#[xIX9Xd<9A2p!]JWsxAF9Xd<9A2KslkIN0g8%;3Q3Y0
o\LKin02Y7jXCsUy$.0;:)X:ZERU:K# $_#r%.0G8%;3q3y2>*dw-91-5i5HY
8$//udw-91-;Br,:K#U,Y#(:7></UZS+xu).)7WU.04v7Qw(e :;=#t[bc!V7Qw(efT(>8
_%.04Ay#(:7></U2Kq=7)s64r:o#u,odw-91-5>;h:X$/$_#+h/1H07s/,9a2P!J+(SZ
$j.0kI9A2p!j+3sf2jslkI9A2p!j+(:v2j.0kINx*$x++(/ js7S/,BC!$_#+H/1:0$yQ
$377/7QwMefV7B#o wp2y7;x#S jL
!KVO*I2T#s$6xXZ>mzwF*-(37qWP:Z
$3\C :)X:Zh<6(/J23\[o:)X:ZhVp9!J2,\C :)X:Z<<6(/J2,\[o:)XjZ=3)*/1+L
T9);B8D87Qw>e%2x4\!+w72Y73w256;>sh\-912>m090%x*$x8
_%5$oWy#(:'X7aSkvo9A2p7CD[o. $_#+:n2d>MDW-910
oYcvuMP2Y73w;%0oWy#(:/X3XMD:uMP*$x#5Z57(>MD(:/Z
$60'90%x*$=#$%=NU>MD(:/X':#_KuMP*$x8
_ =.o$_#UP97D'0#(:7J-50.+((:jZI<63/L)N9cdu5DzJj;v7Ce1$%TO29A2K<+LC*\:peAuh$257XE35B8!>1/  uUD'64R:X.F>7qW)E1hT3J+#6
:(69'v79A2S!]wIw['$_#riW['.#s3mCe1$,c  9A2KJ+3C*\:p>.+h/%(=$E35B8!>1/  uUg']#=F9A2p[
aMF9A2p7%=+9A277x=+9A277%m:)X:L
Txm:)X:$,X :)Xh$UX :)Xh$,X=:)X:L
Txmf9A2p7%=%9A2p7x=%9A2p7%m%9A2p[
aMiKX*$x#=ir>2Y7jwIDIa$_#+:%iA$_#rcE*t*0.+(S\ V,gS+xu).)7Q
$%cA$_#pHIV(=xJl:3$;:%#(:[X'W)')t9a2k$+U9!1:;t-xw*\hP5;<<WgOg6\2mU.f.)7Wor>7a7qW(6
:f37Qw*[25pXYq
$\7>P7Qwx\7>p6\2MudFK7wp:)x:z$j4#9,j$_#R*/b:)Td\Cc['SJ/ox9,)$_#r.UDzJj;S77Z
$MJ0w-9 (=X-+:d12Y73X#/ (=XjJ:%-'P7Qwx!1-pX-3p[: v+S+Q=7)S64R:%-'77qW(E1h5I5Q
$%-'57Qwx!1-SH-_O%-'56\2MudFK7DY /c2y776(E1h(b5_o%-'PU/  UuG']#;6X 4$_#JCu*:$y92CDx*$3jX([vT7[
a;<032Y7jX3$jH$\c 69A2p!34Wixpwd:=:)XhZb3)*/1v$Y922/X*$E+jeI25P=3Q
$%-'6=#(:!%-5<<6([123.<+:)XEZ$VU9!1h57%T9-x*$33xm2H(=x3+:3#2Y73XC*\:pi8
_+N='t7Qw(9[ t.#(::B+)h;43I2$P=uW+Bp2Y73)$/%:$.H#+9A2p!;i>[vH)=8
_%%0a$_#+:KPU[-#(:/XAV9g;:)XSZI-h9!1hP7G# 9A2p[
aY0j_2Y7.+h[v28D[/ m62Y7jX#uUV$0s$(9A2p!j4#sh2t%[F:)X5P!JUmIZ
$<D0w-9\HzXjHC2xMP7Qwr/dZjJ;s79$mp7Qw#e H)0.+(ixMg7Qw3efH00.+M/z
$6R[w-9\yzJ<6([ 2\-#(:[Bt90.+3SXI\-#(:!V-(0.+c[XM[7QwpeU(=X3PY
8$m[7Qw*$b)70.+3'x(\7Qw3ejT$+Z$ 9A2K=5,M/157$]3(qU[/429'c['SJ/ox9$p/1sW-9yh0xy_o]-Ug%/  UuG']8
_'/x*$x+4:5gU$_#+H'/j$.[d<9A2p!jPE/v2G=#(:/Z
$GB#(:/B)(70+:)XhT3Jp(93H$_#UH$V+T3J+P9,(j1#(:!1-P=yj>6
:lm0s$:)X:ZxJI)$F26g<2'9A2p!j+M/1)$YXd:)X50!-IP*\:PE#;i-X*$33x3:V(=xJly
8$a3\#(:/BS7=yW2%8/3s3w-9126yCFfk%2Y7jw2%8/3s0w-91-pXrq
$%6d\%#(:/B+97*y'Nx*$x#;9r7;$_#+H/1+;j#=o*i'g7Qw(e1:9[
aMo*i'g7Qw(e1H$.Z/[* 2Y7Y)$/1V$.Z/[*%2Y73)*/1V$d*50072Y7jq
$]P7J9#(:! (=x-+:]P7J9DW-9126yC2<Rx*$x#5<fX*$]/5<f[G89,+H$y0
o8DKi9A10HvX38vs-J,k!NM;.#S3McE1$8ZM:)Xj9=+le:Jv$8DM:)Xj9=+le:Jv$8DKiO8z$_#p)6
:3VUk#+9A27>jw;BCoh##(:[H:$.'MZ9A2p!ji:]64X7Qw(e1s5$rq
$d62Y73w'R$>GX#(::B:9<uU9!1:(7[=2F=H$_#pH' +*>#f9x=:$_#pwE :($8
_'N8 37Qw3efH70.+3/x/a4D=:)X)Z=Rp981:;7GD!%I2Y7jXp92!hy%w-91-*[
a$!n3;[S#(:[X/HO0$%KX*$x#/!n3;[S#(:/XzHO0$%KX*$=8
_'wG/h#9w-9 2x42F!=-2Y7jw%wG/h#9w-912t42F!=-2Y73X36
:zHO0#+\X*$j#$!n>2Y73w[wGa$_#+:K8![7Qw(6
:;HOZ;:)X:Zh;W[wGuv7Qw(e1+)7G#zBp2Y7jX($v2842/:)XhL
T*V7*p!t7Qw36
:Aa9TW-9YaA9ts+XU).)7w%nPd$_#R%N0D.#S3McE1$S2f09A2p7GDORx*$=<6([10
oS2KF9A270.+3/xA3S#(:[25PxuW%R22Y7jX)9>\$_#jH'25P=3Q
$K,;6.[K:)X:Z$#YT->p$_#639=av0#(:[Bh$\T#+9A25<8
_+m_\$_#3H$%+$+T[TK-2Y7.+h[%:0[
a\ [X*$3Jxm//2M%3=:)XhZh<6(/H2M%-w-9\:zXvP394't7Qw*[be0[
a=Rx22Y7jX3s1+$r[p:)XEZxVp9!1hP7x!'[x*$33xc*\:7x#![[X*$3-x3I (=x3ly
84a77Qw*ubet3jP39$3j7Qw3(1-S7[2:)X+(jV+y
8_ZW4KVO9A277S 0wMDv7Qw39[Dh1#(:2Bj00a+>[Xzw40W-9U-7Br)$/%yl
T\V!kx*$>+jP*::PE#)u9A2)=j+(/1:$1:W-9 2tD#(:[Z
$MD#(:/X'8Mc$:)XhZ<#2+M8/$_#3HIXzJ#T#:)XhL
Tlk<9A2S!5HE[25pXUw,BCu$_#UHI1E;0.+3UX</U2K:)XjZ<J,#*\:7j# ,Bx*$=++W(f0
o*Z;:)X)Z$5l3*\:PI#8<dP2Y7-Xp/fet3jPM9#u,odw-9%-0X],9!1HS7\8o9a27!Jj#(Z
$h*S*<JC Y7jX(/%yp>##,x;U:09(:/BhL
T*F<9A2p!]4C9></7Qwxk#u.#S3McE1$\LK:)X:Zbuh)9$//uzw-91-;Br,Y
8></uzw-9Yaf9xkQ=7)S64R:O#U,9#(:/BhPE3W2-04A9#(:/BE(IyW%.04A9#(:7></U2Kq=7)s64ry
8M</u2k:)X:Zby3)9$/v7Qw(ef+57G8O9A2KslkQ=7)S64R:O# $_#+H'*Y9[
at[bc $_#+H(%+;7G8<Dp2Y77/,BCu.#S3McE1$\LKi%X*$x+p(( 26-zmz%x*$x+,w$H0
oSLKinP2Y77/,BC!/6\2MudFK7k8<dg $_#+h'h)97st[9a2P!J+3IX'[*#(:/b:pXYq
$x$//U#(:/B:P=y,:x></U#(:/B:PxV4:x$//U2W-91-pXjPCux'[*ZMZ9A2p!j+(ijVl
T42!Bx*$j+,e[%2'%c;:)x)zeYPC6
BIg8[9:c6ud#/ <)fH$6'Ka]Dz/_3p(6
BIg8[9:b8!>1#(:/X8$Dt5:%8Dv0#k.*C0
Z.[5'OXg[1*[656*7!jq
H]=3g\#S%5$#$_#UH$*)*0.+>9DA3.PW-9F-5I-h9! h$6gK2<X*$=+Ue2*(==uWqY0Ie7qW#9D ,8*::)X:L
!*$;5M2.s[939A2S!juE/25pH#s%RMH$_#Lh(%e)0.P39da/\3w-9h-S=-L9! V$6'kU[x*$X+uC/xgvu'939A2p[
+t'Y=O$6g$u'X*$j+jmU/(=xVWqKiO57qW#E1v(j<63[XG[9kU:)X+Zj;4w*\h*7/5<O%2y7Jxc/H2.YX5u'X*$x8
X256;>7//'oU2Y7;XWu/Ht3ji:c>L>J#(:(bH7Hv)*[ 2.sz9M9A20!;4W/257>#s;BM)$_#+h'1V$6dm;oU2Y7jq
H]=3g\#S%5mS$_#3H$uS70.+>9DA3\VW-9F-7=VI9! h$6gKu:X*$<+3P$1(==yWqY0O)7qW(E%:*7/;iYmS$_#+y
e$;:1KwQk=o07QwMe*))=<6(:xg[,K4:)xez=3i>*\H77//<ov2Y7rXMi*:t33L:c6u><#(:/bJp>#sOD6o07Qw(6
BIg8[9:C>;>$#(:UB:)Iu)*//2.S%9)9a2;!J3(U257=#S%bmY$_#lH//+(0.pe9D3/\5W-91-5xyWq%c3>$#(:/Z
-61'$U9daG\Uw-9%-SX]+9!1s$6G=U$x*$=++E(1(==jwQk0o(7Qw3e*V5J<63$xg:9KJ:)x:zXU+:cp4:\Uw-910
Z.[5'OXG[1kl:)XjZjJlw*\:)7//FOH2y73x(SH:T33+:C>U>>#(:[Bt*jJ)*[*2.8Z9e9a2P!Jj(9D ,8kl:)X:L
!*$;5M2.s[9#9A27!UJ)[25pH#s%RMe$_#,h2*V50.P39da/\]w-9%-SX-i9! T$6'kU(x*$X++W/xgvu'9#9A2p[
+t'Y=O$6g$u[12y73x3(FtT3JI:C>l>=JW-9 -7h5U9! :$6gKu[12y7;x#I ST33j:C6U>=JW-91-Pj-Wq%c3>=JW-910
Z.[5'OXG[1kp39a2;!Rhw/25P<#S%rmh77qW3E1:9><63/XG[9kp39a2)!Vl(/257I#S;bmh77qW(E1)57/;iYmh77qW(6
BIg8[9:C>;>=-W-9u-0$J39!1+$6g=u[%2y7]x(U*YT33p:C>U>=-W-9%-(=]49! t$6'Ku[%2y7Jx(UV2.YX5u[%2y7JQ
H]=3g\#S;%>d$_#IP95Aw#s$%xX'W7d#tJ4uhm\q
H]=3g\#S;]>d$_#IP95Aw#s$%xX'W7*Vf<z
-61'$U9d3<=#(:$z
-61'$U9d3<B#(:$z
-61'$U9d3<J#(:$z
-61'$U9d3<H#(:$z
-61'$U9d3<<#(:$z
-61'$U9d3<$#(:[b+l
!*$;5M2.89J:)xHz<8
X256;>7/56sx*$=+4Y
e$;:1KwQy-e$_#+h2z
-61'$U9d3<=jw-91-9[
+t'Y=O$6'Y3[X*$x++>6
BIg8[9:c7a7#x(Ce1:p0.3:c7a5#x((e1:p0.HY
8xgjs3 O)U-5Xj)*uxgjs- O)1-pXj)*2z
$$6S/3]p*5!]+(*\)$6S/C]p*p!j+(*\yl
!*$;5M2.%gp2<a)ZbJ+9!u2.%gU2<a:ZxJ+9!J0
o7/2%[mhyj+U(/25s7/2%'mhyx++(/259[
aWqx>h>bq3H'1:T3;Wqx>j>bq+H/1:T35Q
$9D'[=k3-UBjPx<6m9D'[bk3-/B:Px<6)6
:2.%gpu:a)ZbJ+9!u2.%gUu:a:ZxJ+9!J0
o7/2%[m+yj+U(/25s7/2%'m+yx++(/259[
aWqx>h>$q3H'1:T3;Wqx>j>$q+H/1:T35Q
$9D'[=kj-UBjPx<6m9D'[bkj-/B:Px<6)6
:2.%gpuSa)ZbJ+9!u2.%gUuSa:ZxJ+9!J0
o7/2%[mEyj+U(/25s7/2%'mEyx++(/259[
aWqx>h>=J(mE1:P0.3:C7A5\3+-/B:Px<6)6
:2.%gpu[ *s!J+(*\)$6s/cO hyx++(/259[
aWqx>h>=-(PE1:P0.3:C7A5\3U-/B:Px<6)6
BIg8[9:c7a7yGV-'b)pX<6M9d'[Bd/0)1-pXj)*2x8[m\2'k72jm#;!J_m/4t Y
e$;:1Kwqx>h6ST(cEu:P0.3:C7A5.gv-/B:Px<6)95Aw#s$%xX'w7*vF<Z
-61'$U9D'[=9p-SB:Px<6m9D'[b9p-/B:Px<6)6
:2.%gp6'avZxJ+9!u2.%gU6'a:ZxJ+9!J0
o7/2%[-)y>++(/25s7/2%'-)yx++(/259[
aWqx>h<hqlH/1:T3;Wqx>j<hq+H/1:T35Q
$9D'[=94-SB:Px<6m9D'[b94-/B:Px<6)6
:2.%gp62a)ZjJ+9!u2.%gU62a:ZxJ+9!J0
o7/2%[-tyj+3(/25s7/2%'-tyx++(/259[
aWqx>h<>q3HU1:T3;Wqx>j<>q+H/1:T35Q
$9D'[=9,-UB)Px<6m9D'[b9,-/B:Px<6)6
:2.%gp6[1*s!;+(*\)$6s/c\ :yx++(/259[
aWqx>h<=3(PE1:P0.3:C7A5+3p-/B:Px<6)6
BIg8[9:C, 77qWmEF:57($6*6;a0#;!*I([%'#%9>D89S$+Xx\w8#936
BIg8[9:C, 57qWmE%j(7($6*6;a0#;!*I([%'#%9>D89S$+Xx\w8#9c6
BIg8[9:C, s7qWmE%j(7($6*6;a0#;!*I([%'#%9>D89S$+Xx\w8#9m6
BIg8[9:C, )7qWmE%j(7($6*6;a0#;!*I([%'#%9>D89S$+Xx\w8#9>6
BIg8[9:C, 07qWmE%j(7($6*6;a0#;!*I([%'#%9>D89S$+Xx\w8#9P6
BIg8[9:C, 97qWmEJ)*7($6*6;a0#;!*I([%'#%9>D89S$+Xx\w8#9)6
BIg8[9:C, (7qW>E1t*7($6*6;a0#;!*I([%'#%9>D89S$+Xx\w8#9w6
BIg8[9:C, *7qW>E1t(7($6*6;a0#;!*I([%'#%9>D89S$+Xx\w8#9e6
BIg8[9:C, ;7qW>E%:)7($6*6;a0#;!*I([%'#%9>D89S$+Xx\w8#9#6
BIg8[9:C, 7x#(::Bh7x#C'\23gO<WOw2LtsS5!kxaW#z2'=72 M'Wu[10
Z.[5'OXGmY3p:)XSZx;j:z=pT8[d99p7t,</ y8a$st <X=Zj7:v;9mh7[
+t'Y=O$6w;3'X*$h+Ue$X8g+<5'n22v4<=9k73hs#/0=0'G#SwTM62>=-Q
H]=3g\#);[Dh$_#IHI/+$0'pq'X*$j+,('X(:=/3:)X)Zj;ly
e$;:1Kw9y%g77QwMeU)*7<5Cc%2Y7;X3[12t8-sM9A2S!;3E6
BIg8[9:*6).=#(:UB)s>#);UDj$_#3H[ h$0'3qUX*$j+3mSZ
-61'$U923)63w-9U-SJYw9y/g57QwMe H77<5>cU2Y7;XMuh0
Z.[5'OX(:</p:)X)Zj;l:*6+.b#(:UBh7=#);ID)$_#3HUuvL
!*$;5M2t85s39A2S!;3E92396-w-9U-0irw9yjgS7Qw>e J0[
+t'Y=O$0'jq[X*$h+pcIX(:I/U:)XSZx;p:*6t.j#(::Bh5<8
X256;>7<5Ec 2Y7vX3'v2t8YsC9A2)!ju#923*6;w-9/-7Brq
H]=3g\#);(Dh$_#IH[%+$0',q'X*$h+Uw/X(:E/3:)XSZ=-jy
e$;:1Kw9y :.=#(::bH5i#);[1g57Qw>e1e97<53/d)$_#ih[%Tl
!*$;5M2t83PQ[x*$H+PC$x(:=3sC9A2S!]3M9237=/3:)xszB3iY
e$;:1Kw9y J.=#(::bJ7H#);[%g57QwpeUT;7<53'd)$_#uh/f)l
!*$;5M2.\32:)xHzHj)*/*22\3w f8Am#<K<6
BIg8[9:CmjJ7qW3EJ:T3Jj:zmj$%h#%4[(/98
X256;>7/9MXx*$=+H(*\:(7(9M97>HSw 9b00
Z.[5'OXG>hsW-9 -9x<6($X8>h#2Aw>]80zkY
e$;:1KwQov'$_#Ph21(=XUwSov2J/c/.=2U/[
+t'Y=O$6kh 9a27!5+9!1t$(kh:X;7[g\)<Bz
-61'$U9do(%#(:ubyp0.+W95o(7s*!K,zT9ZQ
H]=3g\#SuS72y7;x)/25PI#CuSX'd4G\+*0ul
!*$;5M2.\]2:)x)z$j)*/*22\]w f8Am#<K<6
BIg8[9:CmhP%#(:SB:P0.+w95O7x#2Aw>]80zkY
e$;:1KwQo Hj7QwEe1:t3jJ:ZMH77s*!K,zT9ZQ
H]=3g\#Su[%'$_#lH/1(=xuWsO j$%h#%4[(/98
X256;>7/#f%02Y7UX3/25pi#c!Rpu$%H#%4[(/9#bu[LU\-FQ
H]=3g\#S!rP $_#3H21(=xuWsWi /7S*!k,Zt9zwlo wv4:[b6
BIg8[9:C8lV.#(:'BYP0.+w9573YZW F8aM#<k<9to75*Vf<]0
Z.[5'OXGH\Dp:)XhZ$J)*/*224%;<97>hsW 9B02r\-'U[]0
Z.[5'OXGH\DU:)XhZ$J)*/*224%;<97>hsW 9B02r\;'U']0
Z.[5'OXGH\D3:)XhZ$J)*/*224%;<97>hsW 9B02r\v'Uu]0
Z.[5'OXGH\DI:)XhZ$J)*/*224%;<97>hsW 9B02r\r'U:]0
Z.[5'OXGH\D4:)XhZ$J)*/*224%;<97>hsW 9B02r\5'Ui]0
Z.[5'OXGH\Dh:)X)ZbJ)*/*224%;<97>hsW 9B02r\U'U2]0
Z.[5'OXGH\Dj:)X)ZbJ)*/*224%;<97>hsW 9B02r\Y'U$]0
Z.[5'OXGH\Dl:)X)ZbJ)*/*224%;<97>hsW 9B02r\]'Us]0
Z.[5'OXGH\D,:)XYZ=R)*/*224%;<97>hsW 9B02r\3+=ofkl
!*$;5M2.4K;3/x*$$+Pp*\:(7(#f%02J/c/.=2U/7)93[LO7xFQ
H]=3g\#S!OPh77qW3E1tT3Jh:z8lV9#2Aw>]80zk:VMH55KP3;z
-61'$U9d7>y3u:)xHzHj)*/j224%;<97>HSw 9b02R.[K<\8;J4T B6
BOwY<=:Y$h$8#2%[6*.%gp2<X'[b'(qx>j62#5<faG:9*:y
eMDv0%w;o 2:7S/3yAgjs39397a58Qs k%o77'kA)d3/\3q
HO. T,#5u'X3$%gp;)D'[=kU:x>j:_/2%'mj$8Z*-C6U>b8
XUmp(37'9M962js35-c7a7\;w k%3Y6S/CoU2:9h(Qy0oS[
+90%2l$8kI:YX'[='(qx>h>h#2%'6*.%gUu:X3//qS;bmSL
!KVO*I2:\rw;97a78Qs k o07S/CyAgjs-9p96ud_/5<ov0
Z\T;9rX3>$#5:x>h:_/2%[mY$%gU;)D'[bkh:Y0>y6'Ku2Z
->md)f96o(7'w k 3Y6S/3o*2js-5-c7a5\Uw;B;*.8z9W6
BOwY<=:Ymv$8#2%[6*.%gpuSX'[b'(qx>j>>#5<faG:9kly
eMDv0%w;of2:7S/3yAgjs39#97a58Qs k%o;7'kA)d3/\]q
HO. T,#5u[12:7s/3YaGJS393/X'[b'(qx>j>=JW;b;*.8Z93/Z
->md)f96o7=#5:X>H:_/2%[MH77S/CyAgjs-93[x3//Qs;BMH7[
+90%2l$8kpc962JS35-C7A7\3U:x>j:_/2%'mh57'Ka)D3/\3Uy
eMDv0%w;%>D$8#2%[6*.%GPOk.2js-5-c7a5yGV:y2uY6';%mz
->md)f96i[m#5:X>H:_/2%[$aW7S/CyAgjs-T%mx3t9Qs;]>Dl
!KVO*I2:+3w;97a78Qs k P77S/CyAgjs-y396(/_/56[z
->md)f96P57'w k 3Y6S/3\%2js-5-c7a5+-w;*0*.89uY
eMDv0%w;\U2:7S/3yAgjs3yM97a58Qs k%PS7')<)d3<J8
XUmp(37'y>962js35-c7a7+vw k%3Y6S/C\/2:0z(Qy-sl
!KVO*I2:+rw;97a78Qs k P07S/CyAgjs-yp96(/_/56iz
->md)f96P97'w k 3Y6S/3\j2js-5-c7a5+5w;*0*.89HY
eMDv0%w;\*2:7S/3yAgjs3yW97a58Qs k%P(7')<)d3<i8
XUmp(37'yE962js35-c7a7+Yw k%3Y6S/C\h2:0z(Qy-Vl
!KVO*I2:+]w;97a78Qs k P;7S/CyAgjs-y#96(/_/56(z
->md)f96P7X#5:X>H:_/2%[-Hp7S/CyAgjs-y3/x3t9Qs;\ :l
!KVO*I2:+3P:yx'[='(QX>H<=3w k%3Y6S/C\ H$8<k-c6P7=8
XUmp(37G28]xa$9G$f*AHl
!KVO*I2[9%m:kxu[1%)-[bJ0[
+90%2l$S:K 9>2/S[=9)1-(<8
X256;>7C %Rdat)S((6
BIg8[9:xH+8-s#-/Z
-61'$U97H5<\F wA:l
!z![k,'$#KV<9P2a7ZW[6
:2,_JWF)P\3#8
_:oE*77X57%a  U'Oo=X4:)z(OJC3'9\wi=c*VdX i=Z
$$)d(OJE 87$;-%_MV##m;%A  u';+9e![Yq;T3gAV#8
_:30*vD4k+94UyY:!<=X4:9Q;tD6u874d%ba  )2/<=Z
$$#4(3907a-q+:B8!<%Q+:=GaW#QPY
8xuho%((6
BIg8[9:c,48_3wq4izy=#s.%AHl
!*$;5M2..9#ob[*7[
+t'Y=O$6x(xD9gMu\<Q4:gvu\<Q4p1$6%(xR9gM,\<Q4:gv,\<Q4p$/42=5R[oh97q
$9DfV_7OoAD]=6D=+AD]V5-r:cC3v_7m;%9gM]#s7N> Y]4D%%9gM3/;f=9gMyEux6
:2.)Z(X30[.G.Sor[[.GD'c7Xg,8z(xD6un6WR:cE![9QR7N>un6W6Q%IZn6W;='Y0
o7/!o)yh=rDr:c4uY]36rBY2.)2M:)X1'OX<q4y0
Z.[5'OX4.0:[:)x1>4\BI# kK[
+t'Y=O$u\mQ3A1vDx I=:4-B7q
H]=3g\#m+Dd#Yu\mY
e$;:1Kwi=cG[M\;-7cz,3D[i=czk[
+t'Y=O$u\mQkA1,#xs%m[ $&#m+Dd#Iu\mQ3Y0
Z.[5'OX#76<[t9A1rX++M[/)0TjX3:h:)<EmQ*_\4]8
X256;>7X57%D( dqrLI\#76<[T;L=03Jx3S][RU'Oo!1-7>F_8[D( d7Q
H]=3g\#m;30gtD:(xVv5E=/)tJ]wr<.+h[hknkx57B\:z=Y.$< gtD:RY
e$;:1KwiYe .0#(:7c3'Y/)TjX$$,eU:!1-Pb7WIyEu.0#(:7C3'9/)tJx$$,Eu:!1-pB7q
H]=3g\#sIyE Y779!=t4:)ds9#xHzBj.x9D4:)Z(:7m78KX57bD(173xc/]1L
!*$;5M2\x/90%X*$]Jxe[FYP<a+H/JS7E3<LCc3'YaSiYeU4tJx(//+(b,bqd6fVt/M;30KNK/M;3P$.U'O<;y0
Z.[5'OXg,#x(:7M78kx Ic>9$=+Lb7z
-61'$U9$3w)/29Ym2y776(E1:s<a+H/1vsj]'qd[4ox++(QTG,#X<qd[44]8
_:]do<%[w-91-pX;,3952<%#2;5>]h#2wtm62/a'2lD9L4[
aW2CmpJ1%W-91-P7(w6Xx':1G\!=G2 m'wf*[!j/8
_:]dovg[w-91-p=;L:zX/T%[Wu57AD4\d:K.( dc/!*['$dT5:bN3JKX<F;Z
$$./9.5I2Y7jX(952x0S$:o='[/C z9>DtD:#%w2Zj7:V;9I(8oS*Y
8xi.y% 0ox*$X++M*\:9[
aW2CmpJ=qr2CmpJ1,tqO-'gf3)*[%2-7)SiATG33*Sor[d>C, 7Amf4]8
_:]do<%-(x]do<%[=5]do<%[=5[257>#'lcC[r6%62cpL8mK.5=E[>),BQR\i.y% 0o]kK[
aW2CP(3+sW-9Yuho925/bTpi3<:Bn3jk*sU\7H$T#TQo-'5c7q
$9$G>G[p-9yI.\D\'A$G>Yw$5[257b#':vD4NK/=*]D 3#T9BA[fN\4.X6
:266k\''a2k./9.5i[66k\'r9hT33l=9TG,f)SF!$GV,\vu;9z'fkO5vDl=./;F=.O4C7Q
$9$G>%T2:)X177.W<Wg/Nx+j($ [$9_5 v$G>G[p:8XI.\w$c;y0
>##;!9G7$9Cw[9[2,_7sI7xly]/=X9M*K\4<+39g6+C;<=Y2>r%!()yMP6kvoA$G>%T2X6
:2V0%Y MX*$]*So*ipJt*503D'T8kry
8x;v_7sIatg\y,s7%:Z'F/ozkp5.Rd<Q3GavcE 77z
$$.d(xVd4n#4_Q0p[.uAsr%9Jn64;$=E[5F/ozkp5.Rd<CadFAsd.==E1l
T#$<)Yg,F)srB9g'9A 7adFAsz6Q00[.)2/<;lZ']8
_:]0*Kk/m5=E$.Rz<QD:g\9,u5cEuO#4<CadFAsz6Q00[5F/ozk0k-#4RY
8xZ:yQRlcE![yf'QDY2:o<VUmp*7[
aW+Y0*kK/OZK0K-6Xry
e$;:1Kw;[p*KB,s;k[[r6x5O!d4:X\.=cC1$8-;-9yjN6'/+ATG,3/M;/[K-6Xry
e$;:1Kw;up*K\C ly  17'uO;Y0
Z.[5'OX3)Yqr;UPW>)e 77Z
-61'$U96H/_7u5c6a8F)sIy05.u'++;lg,]8
X256;>7'3<)Yoh#)53BW2:Bd.x6
BIg8[9:Y/Uy]'3<Qmf-#4ry
ypaW7DWOwx3y779'3T3)Y=W3E1:70.4B7Z
3/stw<907$8qWXO=fR8VK/9 -Px3)*I]1L
82$ *x!$oCwXC6U62,bq3g4oK/M=vu[8Ogv+;]K-K\O5=gAw#,bqr\G'O%.BQmfk[
+t'Y=O$SZ#-71-7<Vje'V))f3)*(\:ZxJlc[%v5j,p9! +-6%_(E1:Pj3U#(V[70.U3QTG3f/=B7Z
-61'$U9da>4QR*/b:pHjP>/*Tn=<6#81-p=3P3:vH0F3)*[vw.,.+h/1:5er3>:9Ht3-P=VdLn6%.x6
BIg8[9:Km<H_uxP//tsx<63[X8$de9y
e$;:1Kw%o8*K\[olc>oh vX)$h:7B<63:]1$(SV:]6(<0\2:kM7$D'VU97>t7\)zX8Pt79$f020
[ODWz9P2[_7#+KiG[0425K07NK/M$Ce!,C, 7Amfk[
gd<9G2/7g(XW[A36g)7x9A/4,bqd:G'OX.5=e[>)7Q
%%02v7ZW%)y78S%S%*e'NSk#5vD4o64di;9z'fkOX6
[...]
-61'$U9c3'Y/)Tja1R<.:3C2\ CebP!1-7>F<Ld6fV3Jx3S]$e=/)Tjy0
Z.[5'OX4:)zs9J_*Kkr68[d( Df'li\:z=Y.5VC3'9.+h[hkO23s9J_1l
!*$;5M2,84;q*X*$]X57%D( d7WIyEu.0#(:7C3'9/)tJY0
Z.[5'OXg,84;-9Yoh#)m;3pgt #Ph'1kK7/M;30*$]k#+vc3'9/)/9 -5xFry
e$;:1Kw2Y.f.%<5u9a2kx++>:*j;f<M27Z
$$./96X=2Y7jX(//22792:x6;[Gc Z9_d:7Z%;xT4N,FQ
$9$G>+s$F9a2P!JWS9-'$%'$%48ZA7:V;9I(8oS*Y
8xi.\d\'9A2p!jPM(x8$-<2'9M;jsh#+NxaW0:[!k8(8%#[0yxu_8SBIaIkl
T#TQo,;37Qw(e12270) 5xoG%G*!=G2[m<[tw>7t#Swtm6230\D Fz
$$./;f=.o$_#+h/U(=X5q
$9$G>+sp-7$G>+s$5]DO<%[<3*\h57eWLd9=.,.tq%izw\F.X6
:266kY 'a166kY 5i[66kY 5i[70.pe9L=,f)SF!$GV,\vu;9=.,.tq%izw\F.X6
:266D)F\72Y77k!N-'nX+J($ [$9_5 V$g>+SP:8xi.\92C;Y0
o7*Su4=hy77tqOP]gf*Su%,;N=<63'XW$KX<LCi566D=+MmK4]8
_:]doM1-(:7$g>g[=5]doM1%<3*\H*5#BIatg33*sOR[D>c,BQR\i.y% 0o]kK[
aW2Cm'w%#(:7 2=7Z#Z-9:ZIJj3AXU_8sb2Cm]g=#_:]DOm1-.X6
mz$y#D!902x7\=69C*,7%(QRxOy]3r:O4l\xqr2Cm'w%7W<5a1.U'O<AD]k7Zf-7D4:)D<q4y0
oY<=6x.2y77tq%2l<%at;MeGJ0'9X6
:2gYq$o9$ Y.dw'ba;/7*k-]0288D(+YP288z(+y00
o7'd9MmdV_3Q
;n='T72wZWX1.8zT8atg'ox_lDl=SF\D%m[k4cEB+N>D8F)sf!dFA,*Pb;Y0
Z0\;<9ez>MZ=6xZ
-/R0/.XxF8\tkUR-'$Y#d:bX/$uQ+:ra:$1d((9$ YX#$<)1269Q+:=6 YX# ;BA:l
T#)I]A:$U'Oo)P\,84;+OX4:)z(OJC3'9\9:b8!<%q+:b8!X_JW<Wglyx# ZK.zy=8
X256;>7/=:)x137Ak!NI[3#K#<7z
$$64DI9A2K)2m5c,1l
!*$;5M2,6<[T9a2k\c LdwhT35.5[2Yk[
+t'Y=O$23s9J_2Y])6(e J)B3_(eUJ)B3H=Dd( DfRY
e$;:1KwiYe .0:[-7T+=23S9j_K-KR6(E%KNKX57%\:ZbF_8[D( d7Q
H]=3g\#m;30gtD:(xVv5E=/)tJ]wr<.+h'][ru'o<!1-5cA:3c2\ ]8
X256;>7X57%D($_#riYe .0:[:8XG3f3))Q%2=x++mIy2,84kQ*x*$]x57Bd( D#_:cI[705'C9\:zX;4x6
BIg8[9:cC3'yQwxo8Zru'oOc29$=+Lb7xG,84K-9yOH#)M;30GT #pHS]1L
!*$;5M2\x/90%X*$]JxeIFt(tJx(UV)0h,bqd6fVt/M;30Kox++([1[R6X57%:G,84KBATG,84;$Cc3'9Fry
e$;:1Kw2Y.f.%<5u9a2kx++PSF:5f<M27Z
$$./96X=2Y7jX(//)57(W6xX':1g\!=g2 M'W<>6'RU,=B6
:266kY 5i2y7Jx(952<%#2;5>]h#2wtm6230\D Fz
$$./9O4=2Y7jX([%H$(#f9x=2>1s/aW[!$ST)Tj8AH0\2:j.3$9_5 vc[3C8
_:]doM1%w-91-p7(w[*7;$\[2%F8ZA7GV9J_7[4<  9_D:7%)+N7>l
T#TQ%IZW\#(:/b:S0.+)6
:266kY [a166kY 59I.\92'A (==-W=9T4NK/=*]D 3#T9B;y0
o7*Su\7jy]*Su\7;3f*Su\7;3f3)*[H2-KX<LCi566D=+MmKNK/=*]D 3#T9B;y0
o7*So*ipJ7QwxB8!<%,+h$1T7F#k4y7=66Ky [x$$./96X%kK[
aW2Cm]g=qWX]DOVG[<2Cm m1,p9! j$5#biATG33*Sor[d>CFry
8xi.\W$C)x166K\'R9i.\W$fa (==Y':VC[r6%62cpL8mK.5VdL=./;f=.o4c7q
$9$G>%T2:)X177.W<Wg/Nx+j($ [$9_5 v$G>G[p:8XI.\w$c;y0
>##;:N82/70w+oIP$uQm:RAg37k!F01*krJSuMP[66k20xy0
o7D)F\7d$_#r2Y.f.%<5u8XI.Y<=6xy0
o7[;-5P26yQTO9=Uy1ZW2BAi/7\5o)[3V7\5<)[3/[
aW;n2d>MD(36
6!g%<Wz9g7$]/5<]O[r64DI8t4-k;<+N>D8cf.=V[![m\<lcI5.)2=b;Y0
Z0\;<9ez>MZ9F\70
Z9$f%472'#kv<O.f$y#D:Bx/$Uq+:RA:$1D((9$ yx#$<)1269q+:=6 yx# ;ba:L
T#)I]A:$U'Oo)P\,84;+OX4:)z(OJC3'9\9:b8!<%q+:b8!X_JW+n>d8_3Q
H]=3g\#sf9A23[
aWq3g4$_#r7nc[.G7Q
H]=3g\#mQ*_\$_#RUw[=, 3)*2][705RY
e$;:1Kw8[D( d#(Xv1-Ph3h#S::Z=Rlm(%W,6<[T;y0
Z.[5'OX4:)ds9J_*Kkr68[d( Df'li\:zBf<lD6Fv3jXC;:#76<[t7z
-61'$U9c3'9/)Tja1R<.:3C2\ CebP!1-5C,biYeU=x+UB8oh.0:[X6
BIg8[9:D6Fv6<w-9Y4:)ds9J_2O7/=5[2y-B#6(e1s0]#M;30GT7qWXd6f/6<[T9:2.,,p92Lj$3Jx(:V1L
!*$;5M2.U'Oo)X1>4\biYe .0=W3EHKk7/m;30*$]K#+VC3'9/)/9 -*c7q
H]=3g\#!(cMDv7Qwx/bVS$vu$/b:)=Yi#atg,84;$cC3'9f_(e1:7X,BQD6FvT/m;30knk/m;3p$.u'o<;Y0
Z.[5'OXi:m4s *6o$_#R(e1+*eju5*CiK[
aW2CmpJ1#(:/B:Ph;U:zXpJ7s5'K,78O#[0YXU_8sbiAiKL
T#TQo-'G,#(:/b:$(#Y 973gSw#+nX\w8#=9=g'D[
aW2Cm m1#(:/B:7b3WS93(j1#9'X>>h#2w%m2\ 4G#9=72 m'w<>6'ru,=b6
:266k\'rX*$x++:zX/T%[Wu57AD4\d:K.( dc/!*['$dT5:r2za%HQ
$9$GV,\vu9a2P!J39!1YL
T#TQo-'7_7TQo-'GF*sU\7;n=<63'xw$kx<lcI566d=+mMk4]8
_:]do<%-(x]do<%[=5]do<%[=5[257>#'lD9=.,.TQ%IZW\f<lcI566d=+mMk4]8
_:]d t,92:)X1/42Y A1-(xup590n:%)tqO-'77aW2CmpJbFry
8xi.\W$3)x166K;.59i.\d\'a (==-w=9t4nk/=*]d 3#t9b;Y0
o7*Su4=jy77tqO,;3f*Su4=lN=<63SL2RU,bqr\I.Y% 0O][R6%62CPl8Mk.B7Z
$$./9 m72Y77P:!xuho0<(e*:(=,w<>6'r./9.5 2O7*sU4=J4]8
9+9P2a4#K:-Xz>7X(i9i*.,#9rR4:Y]$+Qo. n./9 m71l
T#;9R-'W7Qwx]6D'6S);ox$$./;9R-'K[
aW'%a;V7*;-]p2g9q$<9$uY.zw+YP*88DW+y0*88zq
$96!TMkvo) 0
:O[299G2a4#RQy0iEF)s7NC$ruEBMa[![m\.b;l=8oGV+atg33/ozR]kK[
+)+%02'#kv<O.fL
!z![k,'$)\90B7D'Brwo9g2/70WI)123_JW'%A:$.d((9=uYX#T<)1288d((9[3/_jq
$9246_JWIyE Yy:m;3pZj7X57ba  U'O<=72/42y )12/42F-/xZAst -[z
-61'$U9Dl$_#=y
e$;:1KwiYe .0#(:7c3'Y#_:Ci[705'c9\:Z=34X9C3'9/):)x1,84k:8xg3F3))q%2=X+P3iY0
Z.[5'OXg,84;-9Yoh#)m;3pgt #Ph'1kK7/M;30*$]k#+vc3'9/)/9 -5xFry
8xg'oxw-9YFAu,s.7z
-61'$U94:.\T;:)X1P!uh#[::Zxy,([9=.U'Oo8D4:)Z.$/B:Pj,bqd6fVt/M;30KNK/M;3P$.U'O<;y0
Z.[5'OXi:m4s *6o$_#R(e e;J-35*CiK[
aW2CmpJ1#(:/B:P<Rj:zXpJ7s5'K,78O#[0YXU_8sbiAiKL
T#TQo-'G,#(:/b:pJrH:ZxPj7S5'k,78o#[0yxLt#22A6
:266k;.5X*$x++3:/2270) 5xoG%G*!=G2[m<[tw>7t#Swtm62/a'2lD9L4[
aW2Cm]g,#(:/X8$-<2'9M;jsh#+NxaW0:[!k8(8%#[0yxLt#22A6
:266D=+Mm2y7Jx([25P$8
_:]do<%3(x]do<%[<2cMPj1,P9! J$5#BIatg33*sOR[D>cfRY
8xi.\92C)Yi.\92'R9i.\92'R9Ht33L:qt4nk/=*]d 3#t9batg33*sOR[D>cfRY
8xi.y<=6Xx*$]Z#Z\7[P!u+w[92/A'2L]DO<%3W$9$G>+sUB7Z
$$./9.5 *$]*sU%,;n./9O4=[70.PC9l2ru,BQR\i.y% 0o]kK[
aW2Cm]gbqWX]DOm1%<2Cm]g,,p9! v-7)M5vDl=./;F=.O4f)SF!$GV,\vu;]1L
T#TQo7Dj7Qwx[x5$9CD[a1-(XUP590N:%)TQo,;77Aw2cM]GBfRY
o[2V72#:bX/$#sWi)c23_/=:o4L\XQRr/doWy,TQo7Dj]8
_:%2L<%tw-9Yi:m4s *6o$T#TQ%2L<%7q
$9= y1DW2%Aiv7[K-50269QT<9[3V_\5o9[3/_\5<6
:2:O<vuMP*7[
'd'x22A72#:7d3/.p<lcE!,T)m=VU[8oGV+;]k-k\D%m[[r6%6Q3GL4c7q
H*[ /74 uM0'w)-4y
e0mxsW2:32Z>mz203%+.y<=9X22V72W<932,_jwF)12GyQ+:]p*p7[k-/xi/_jw+yp*p7\5<)10
o7<M2)12,84;-%_4:)d  9c3'9q;Td6f/#sW<wGPj_jw<wG/YX# zk.ZY=8
X256;>7/=:)XlL
!*$;5M2,84;q*X*$]X57%X$$6%<3*JW57.+H//1$u'o<c22Y77m;302O7/=5[2y-B#6(e1sK[
+t'Y=O$6x57%A2K\C lD6Fv6<a:[bJpc7wqd6f/_#ruW[=,84Kq*w27!-+B7Z
-61'$U9dFAu#(:7E!,F/\x6
BIg8[9:01g>mdw-9Y:zijJW81-pev45Vd4:)d_QD6F/cA+h/ H)F)sIyE O6x57B][r6x57%:g,84kb7z
-61'$U9$3w)/29Ym2y77+H[FEsb;<9d$1L
\\wo9g7$9#f:*['$UqM:raG37K!f01*KRjsUmp1l
T#;9R-'W7Qwx]6D'6S);oY0
o7[;-5P26yQTO9=Uy1ZW2BAi/7\5o)[3V7\5<)[3/[
aW;n2d>MD(36
6!g%<Wz9g7$]/5<]O[r64DI8t4-k;<+N>D8cf.=V[![m\<lcI5.)2=b;Y0
Z0\;<9e(8\TK Mej06D)F*7(L
!z![k,'$)\90B7D'J;wo9g2/70WI)123_JW'%A:$.d((9=uYX#T<)1288d((9[3/_jq
$9246_JWIyE Yy:m;3pZj7X57ba  U'O<=72/42y )12/42F-/xZAst -[z
-61'$U9Dl$_#=y
e$;:1KwiYe .0#(:7c3'Y#_:Ci[705'c9\:Z=]4X9C3'9/):)x1,84k:8xg3F3))q%2=X+P#iY0
Z.[5'OXg,84;-9Yoh#)m;3pgt #Ph'1kK7/M;30*$]k#+vc3'9/)/9 -5xFry
8xg'oxw-9YFAu,s.7z
-61'$U94:.\T;:)X1P!uj3Su$P!JlwS*)NK/M;3P$.U'O<;::ZxJ35vD4:)D_qd6f/C,bqd6fVt/M;30Kk[
+t'Y=O$6*y!%0Zj_3q
H]=3g\#T;mEgj0'9:)x1p!3,#u%)n0xTx6
:266kY 5X*$x++(SFv$(#Y 973gSw#+nX\w8#K4Y7=,f%.y
8xi.\92'Rx*$X++(u%y$(#y 973GsW#+Nx\W8#=9=G'd[
aW2Cm m1#(:/B:7bJIw952x0S$:o='[/C z9>DtD:#%w2Zj7:V;90N:%)m5R]0
o7*Su4=l$_#+:Zx/t%[wU57ad4\D:k.( DC/!*['$Dt5:R2ZA%hq
$9$GV,\vu9a2P!Jp9!1YL
T#TQo-'7_7TQo-'GF*sU\7;n=<63'xw$kx<lcI566d=+mMk4]8
_:]do<%-(x]do<%[=5]do<%[=5[257>#'lD9=.,.TQ%IZW\f<lcI566d=+mMk4]8
_:]d t,92:)X1/42Y A1-(xup590n:%)tqO-'77aW2CmpJbFry
8xi.\W$3)x166K;.59i.\d\'a (==-w=9t4nk/=*]d 3#t9b;Y0
o7*Su4=jy77tqO,;3f*Su4=lN=<63SL2RU,bqr\I.Y% 0O][R6%62CPl8Mk.B7Z
$$./9 m72Y77P:!xuho0<(e*:(=,w<>6'r./9.5 2O7*sU4=J4]8
9+9P2a4#K:-XzJ192:da4$,qSF9M*K6*y!%0Zj]#9rR4:Y]$+Qo. n./9 m71l
T#;9R-'W7Qwx]6D'6S);ox$$./;9r-'k[
aW'%a;V7*;-]p2g9q$<9$uY.zw+YP*88DW+y0*88zq
;n='T72wZWX1.8zT8atg'ox_lDl=SF\D%m[k4cEB+N>D8F)sf!dFA,f.x6
B(8YZW7=md/%TOmUZ
-/R0/.XxFt#KV<X.FSJ/;9R2't7DWZ902X7x((9i*P7[;-/xiv_jw'BA:$.z((9[3v_jw+y0*p[
aW9d$*P7x57%A  u'oO=72,84K-%_4:)Z  9[![m\(36
BIg8[9:cI2Y7%q
H]=3g\#sIyE Y779!=t4:)da:[bJ4]#SiYeUy779!=T4:)ZA:[Bj4]8
X256;>7/ozDx*$]4DIad]K[
+t'Y=O$6*y!%0Zj_7+hshsOX++>sv[r6x57%:g,84kb7z
-61'$U9$3w)/29Ym2y77+H[FEsb;<9d$1L
\\wo9g7$9#f:*['g+sWi)c23_/=:oA1..9#OB['K[
aWo*ipJM#(:7$3w)/29Ym1L
T#$O)= $.D(2%X;/_[k:]0*69# ;%AZ:y# ;baz:98
5z57($O#D!9yG:9*:5vDfaUabiQT)N#2/0=]K45) ZK.zNK/=*Ce!3CFry
e2Zv9#o9=MD/%toMud t,<296
BU\-g\ 9eI>MZWO9G2/70wi)123_jw'%a:$.D((9=Uyx#t<)1288D((9[3/_JQ
$9246_JWIyE Yy:m;3pi$U'O<)P\,84K2907A+S((907A-Q+:B8!3_jw+N>D8_3q
H]=3g\#sf9A2K,#_:B8!3F%TUw01l
!*$;5M2.U'Oo)X1>4\biYe 173xc;y2.u'o<)x1>4\BIyEu173XC;Y0
o7/OZdX*$]4diAD]k[
+t'Y=O$RjsUmp2Y77+h(*TOX++3'1y-=++>s*$p!jPC/jw7!jiE$Y0
Z.[5'OXi:m4s *6o$_#R(e1spH;,5*CiK[
aW2CmpJ1#(:/B:Pj]p:zXpJ7s5'K,78O#[0YXU_8sbiAiKL
T#TQo-'G,#(:/b:$(#Y 973gSw#+nX\w8#=9=g'D[
aW2Cm m1#(:/B:7ju,:Zx/t%[wU57ad4\D:k.( DC/!*['$Dt5:Bn3jkx<f;z
$$./9.5I2Y7jX(952x0S$:o='[/C z9>DtD:#%w2Zj7:V;9I(8oS*Y
8xi.y% 0ox*$X++M*\:9[
aW2CmpJ=qr2CmpJ1,tqO-'gf3)*[%2-7)M5vDl=./;F=.O4C7Q
$9$G>+sU-7$G>+s$FA$G>+s$FA (==yW=vc[R6%62CPl8Mk.5vDl=./;F=.O4C7Q
$9$GV0%Y 9A2K3z#z\7[p!U+W[92/a'2l]do<%3w$9$g>+Sub7z
$$./9.5 *$]*sU%,;n./9O4=[70.PC9l2ru,BQR\i.y% 0o]kK[
aW2Cm]gbqWX]DOm1%<2Cm]g,,p9! v-7)M5vDl=./;F=.O4f)SF!$GV,\vu;]1L
T#TQo7Dj7Qwx[x5$9CD[a1-(XUP590N:%)TQo,;77Aw2cM]GBfRY
o$2V72#:bX/$.#M-dXly6%WU0Imp_7!(cMDvF*sUX.'K[
aWo*ipJM#(:7$GV0%Y !$3w)/29Ym1L
T#$O)= $.D(2%X;/_[k:]0*69# ;%AZ:y# ;baz:98
_:yG(W\t;-[z
3A1S):nX!h77S;b$#NK/OZd:=,5)35=gAw#F.BQTzaST 5vDl=64dF] K4]8
X9=pu$)*90Bz
-/R0/.XxF6\tkf\72V72W<932,_jwF)12GyQ+:]p*p7[k-/xi/_jw+yp*p7\5<)10
o7<M2)12,84;-%_4:)dT+9c3'9q;Td6f/.\W<WgpJ_JW<Wg/yx#K!ni*P7\d%M[*7[
+t'Y=O$6%w-9YL$T#k!NI[3.K#<7z
-61'$U9D4:)D(:7m78KX57%w27!-.X9d4:)z(:7M78kx57BW27!-.x6
:2.)2M:)X1'OX<q4y0
Z.[5'OXmp6KVO9A2KX+,W$::zX3u(2lHzXvLW81-p=-+)q -pHYJx6
BIg8[9:]6D'6S);ox*$]jX(:1sSe,)I]Y0
o7*Su\7;$_#+H/1S$(#Y 973gSw#+nX\w8#K4Y7=,f%.y
8xi.\92'Rx*$X++:zXpJ7s5'K,78O#[0YXlT#22a6
:266k;.5X*$x++3UF2270) 5xoG%G*!=G2[m<[tw>7t#Swtm62/a'2lD9L4[
aW2Cm]g,#(:/B:$(#f9x=2>1s/aW[!$ST)Tj8AH0\2:j.3$,< Zx;0
o7*Sor[d>7qW(E1)T3Jhy
8xi.\923)Yi.\92'a$g>+S$5[257B#':VC[r6%62cpL8mK.b7z
$$./96X%*K./96X=Ln./96X=Ln=<63sxwru,BQR\i.y% 0o][r6%62cpL8mK.b7z
$$./;9R-'$_#r*b8!<%,+H$1t7f#K4Y7=66kY [X$$./96x%Kk[
aW2Cm]g=qWX]DOVG[<2Cm m1,p9! j$5#biATG33*Sor[d>CFry
8xi.\W$C)x166K\'R9i.\W$fa (==Y':VC[r6%62cpL8mK.5VdL=./;f=.o4c7q
$9$G>%T2:)X177.W<Wg/Nx+j($ [$9_5 v$G>G[p:8XI.\w$c;y0
>.#;:n82/70W2r-2,_XWF)Dl$\$=r/A1\X/90%9i.\SV 7z
$$y<=6X.2Y77TQ%2L<%.T;mEgj0'9x6
:2gYq$o9$ Y.dw'ba;/7*k-]0288D(+YP288z(+y00
o7'd9MmdV_3Q
;n='T72wZWX1.8zT8atg'ox_lDl=SF\D%m[k4cEB+N>D8F)sf!dFA,*Pb;Y0
Z0\;<9eI>MZ=6xZ
-/R0/.XxF6\tkUmE2V72W<932,_jwF)12GyQ+:]p*p7[k-/xi/_jw+yp*p7\5<)10
o7<M2)12,84;-%_4:)Dtu9C3'9Q;tD6F/.Kw<WgpJ_JW<Wg/yx# ZK.zy=8
X256;>7/=:)XlL
!*$;5M2.U'Oo)X1>4\biYe 173xc;y2.u'o<)x1>4\BIyEu173XC;Y0
o7/OZdX*$]4diAD]k[
+t'Y=O$RjsUmp2Y77+h(*TOX++3'1y-=++>s*$p!jPC/jw7!jiE$Y0
Z.[5'OXi:m4s *6o$_#R(e1s*HrH5*CiK[
aW2CmpJ1#(:/B:Ph;j:zXpJ7s5'K,78O#[0YXU_8sbiAiKL
T#TQo-'G,#(:/b:$(#Y 973gSw#+nX\w8#=9=g'D[
aW2Cm m1#(:/B:7b3WS93(j1#9'X>>h#2w%m2\ 4G#9=72 m'w<>6'ru,=b6
:266k\'rX*$x++:zX/T%[Wu57AD4\d:K.( dc/!*['$dT5:r2za%HQ
$9$GV,\vu9a2P!J39!1YL
T#TQo-'7_7TQo-'GF*sU\7;n=<63'xw$kx<lcI566d=+mMk4]8
_:]do<%-(x]do<%[=5]do<%[=5[257>#'lD9=.,.TQ%IZW\f<lcI566d=+mMk4]8
_:]d t,92:)X1=9cd6x9:ZIJj3AXU_8sb2CmpJ=#_:]DO<%-.X6
:266k\'[a2k./9o4=[66k;.59hT33U:QX=,f)SF!$GV,\vu;]1L
T#TQo,;5_#R2cM]G,,TQo,;3F3)*[hw$kx<lcI566d=+mMknk/=*]d 3#t9b;Y0
o7*Sux.'$_#r39\2/42f5/BtPI3<:bN3JK*Su4=h$t#tqO,;5C7Q
u]X $OcW<9326\#M-dXly6%WU0Imp_7!(cMDvF*sUX.'K[
aWo*ipJM#(:7$GV0%Y !$3w)/29Ym1$([;o9c(3,#t;MeOH%PW!x2O$4\2097>T7D)F\7dL
T#$O)= $.D(2%X;/_[k:]0*69# ;%AZ:y# ;baz:98
_:yG(W\t;-[z
3A1S):nX!h77S;b$#NK/OZd:=,5)35=gAw#F.BQTzaST 5vDl=64dF;]1L
!< OBxF6\tkUmE0
Z9$f%472'.kv<OipJ7dwz902x7X((9I*p7[;-/XIV_JW'ba:$.Z((9[3V_JW+Y0*P[
aW9d$*P7x57%A  u'oO]ML<7X57ba  U'O<]ml<7Z#Z\7*P7Z#Z-a:$9cdF)128Ogv+) 0
Z.[5'OXg3_#Rf9:2/42=5R$oh97q
H]=3g\#sIyE Y779!=t4:)da:[bJ4]#SiYeUy779!=T4:)ZA:[Bj4]8
_:cE!,7Qwx3G4n6WRY
e$;:1KwR/DOwY#(:71-;Iu_(E1h5x5'3E1S*Ia+H/ jP$epH//v(]8
X256;>7*503D'T8kW-9y:ZxVl>IJ[TU*ry
8xi.\92'9A2p!j+>u%22792:X6;[gC z9_D:7z%;Xt4n,fq
$9$G>+s$F9a2P!JWS9-'$%'$%48ZA7:V;9I(8oS*Y
8xi.\d\'9A2p!jPC[x8$-<2'9m;JSH#+nXAw0:[!K8(8%#[0YXU_8sbiAiKL
T#TQo,;37Qw(e12270) 5xoG%G*!=G2[m<[tw>7t#Swtm6230\D Fz
$$./;f=.o$_#+h/U(=X5q
$9$G>+sp-7$G>+s$5]DO<%[<3*\h57eWLd9=.,.tq%izw\F.X6
:266kY 'a166kY 5i[66kY 5i[70.pe9L=,f)SF!$GV,\vu;9=.,.tq%izw\F.X6
:266D)F\72Y776<wGPjFjXW/*Hn7z%;Xti.\9239:266Ky ']1l
T#TQo,;7_#R2cM M1,TQop]GF3)*[%2-7)m5VdL=./;f=.o4c7q
$9$G>G[U-9yI.\w$FA$G>G[=5[257>eWLd9=.,.tq%izw\F<LCi566D=+MmK4]8
_:]dojmSw-9YH$3#k!N3[p!U+W[92/a'2l]doM13w$9$g>g[ub7z
o67dwzwxu$-#TUR-2,_xwf)dL$\$=R/a1\x/90%9I.\sv 7Z
$$y<=6X.2Y77TQ%2L<%.T;mEgj0'9x6
:2gYq$o9$ Y.dw'ba;/7*k-]0288D(+YP288z(+y00
o7'd9MmdV_3Q
;n='T72wZWX1.8zT8atg'ox_lDl=SF\D%m[k4cEB+N>D8F)sf!dFA,f.x6
B(8YZW7]md/\%Y 6
BU\-g\ 9eI>MZ203X $o#k:-x4yx#=-/x;V_JW2%a:$1Z((9$Uyx# ;%a:$#'K-/Z
$$0xT-/x4:)D(ojc3'Y*2:D6F/_d[IyEu6%#k!N-'YX#k!N3*p7\D%m[*7[
+t'Y=O$6%w-9I0
Z.[5'OXg,84;-9Yoh#)m;3p9$=+ub7xG,84K-9yOH#)M;309$=+UB7Z
$$64DI9A2K)2m5c,1l
!*$;5M2\x/90%X*$]Jx#$*$P!Jpc/JW7!JIe$::Zx3U(2LhZxVlw7Z
-61'$U9$3w)/29Ym2y77+H[uj9xR<9d$1L
T#TQo-'G7Qw(e1:0=#C:\72J8[/.W[!$dT5:bN3JKX<F;Z
$$./96X=L$_#+:zXpJ7s5'K,78O#[0YXlT#22a6
:266k;.5X*$x++3UV2270) 5xoG%G*!=G2[m<[tw>7t#Swtm62/a'2lD9L4[
aW2Cm]g,#(:/B:$(#f9x=2>1s/aW[!$ST)Tj8AH0\2:j.3$,< Zx;0
o7*Sor[d>7qW(E1hT3Jhy
8xi.\923)Yi.\92'a$g>+S$5[257B#':VC[r6%62cpL8mK.b7z
$$./96X%*K./96X=Ln./96X=Ln=<63sxwru,BQR\i.y% 0o][r6%62cpL8mK.b7z
$$./;9R-'$_#r*b8!<%,+H$1t7f#K4Y7=66kY [X$$./96x%Kk[
aW2Cm]g=qWX]DOVG[<2Cm m1,p9! j$5#biATG33*Sor[d>CFry
8xi.\W$C)x166K\'R9i.\W$fa (==Y':VC[r6%62cpL8mK.5VdL=./;f=.o4c7q
$9$G>%T2:)X177.W<Wg/Nx+j($ [$9_5 v$G>G[p:8XI.\w$c;y0
>.#;:n82/70W2xX4yU#=-Ci2>R%!()Ymp6KVOa$g>%t2x6
:2V0%Y MX*$]*So*ipJ3*503D'T8kry
8x;v_[;:]P*6Y#$<)=u$.Z(2bXZ:yQ ;%xz:9q ;bZ
$$82)0o. Y=8
5z57($O#D!9yG:9*:5vDfaUabiQT)N#2/0=]K45) ZK.zNK/=*Ce!3CFry
e2Zv9#o2o.ujm4q
Hb4/[GsW7*$Ow9sv7CP(30s):%x!$9#F:da:$,Q+:5P*P7*;-/X;/_JW2ba:$#';-/Xz:9q+y
8x(,.Q+:d6fV_D[iYe 6%#m;30*vDx57B$'$#2/0=AHl
!*$;5M2.,#(:rZ
-61'$U9D4:)D(:7m78KX57%w27!-.X9d4:)z(:7M78kx57BW27!-.x6
BIg8[9:Ce!,7qWX3g4N6wry
e$;:1KwR/DOwY#(:71-;Iu_(E1h5x5'qd6fVtJx([%:95/M;301L
\*wO9G7$9#F:*$'$uQm:RAg37k!F01*\x/90%Z
$$1d('%xIV_*;:50*G9#t<)$U$#';-=6 $#'K-=6UL
T#5z*.oWyQPY
yG;j0#d:N82k6'K2<9=.)2M$vcWRj, ZK.z4CF'L=gAw#,bqr\G'O%.B7Z
-t#dk:32i>mz203d t,<296
BM8.'v 6
.ENDL SS
.lib T_res
.prot FREELIB
H]=3g\8
_:%_48uQP(6
:2VdXK[]o*5!JQ
$9P\,#D(cE10
o7/;Fb3Ie_JWQ%IZv_jwq%iz,_JQ
$9D'[=\M-/B:Pb#S K%z,_JQ
$9D'[=\;-/B:Pb#S K%zV_-)*2Z
$$6S/3*[ 8yQ6(e1:97/2%'2Zv#d(3*\+l
T#s k ux.p(Me :S0.i:C7A590t8)%-PE<6w6
:2.%gp9=PIe_;x3:V(=h#s k%(8y*:-/259[
+t'Y=OL
T#sOD0/62/ -!U(=>#Sod[ .#qp9!H2.YX iC[*=x+hP*\YL
T#s;B[4.#Q3W/xG39' iC[*5!R)*2Z
$$6'k0]$a.#Q3M/xG:0\;2<Dzyh+,9!V0
o7/5<M$I[6%S+)%SP7/59=piE6\(>ef(=<8
_:c6uW.*/QFdZYJ;+:C6(8Y*:q=aSZE<6P6
:2.8Z oC[*;<+I:C6(8Y\;q=ajZ$V)*IZ
-61'$U6
:2.YXK[]oGJ_7j9!HWs]#sOD[ .%QR3e%(=iE3x9D ,#XS )y:ZbR)*2L)k[
aWqY0z,6sM-7%:P5-r:c6u8u/2[)YH*XEux9dL/8\mQXA1p!r)*2l)K[
aWqY0d6.gS )y+P5-r:c6(8y*:QXC*KH<6pqU1$6')+%$#.%0(xu2505;RY
8xg:9\;QXA17XEux9D3T#D oC74y]3,9!JWs]#s;*[ 8y/2[)YHp0.H=uY0
Z.[5'OXUHO/59ba:L
!*$;5M0
o7//']o3T9q+H[1)00.3:c>i62')<)1-pB-J9!f0
o7/=9=PIe_;xw*\t$6%)+%[ yh+39!*0
o7/;ib3Ie_/;ib3Ie6\WQ%CZv_/;I=pg87/;i=c*.YX iC[0
o7/5<=c*.8Z iC[2.,z5+DAg39' Ic[0
o7/5<M$I[_/5<M$I[6\WQy2Zv.p(Qy2Zv.ps+6
:2.8Z o)D3/#DS+9d3t#d O)d3t#d Oc[0
Z9$f%47262Zf;*02g70W<030
o7X(ojcUX.PWF)10
o7kK-[XO:_3WUkAH$9cd;)10
Z.[5'OXg6+GT8) 2..952<ah$6W;-[z
-61'$U9D4y]X<q4y2.,qrFAD]o6D=<-$#N6w;X6
BIg8[9:cCiE8<k-7C[.gAsOD$#O6dm<-$#n6W;x6
BIg8[9:]d;:_jX('/0
Z.[5'OXi.\'(x]d;:FjXW/*Hn=<6)q0N:%)sfatg,T/;I]Ok4FK5=o01l
!*$;5M2.,g$2)yG3t-<qr2zV.Pry
e$;:1KwqKa1R6g$2<6(/f/=%5$[.U*:;*0$.S*t8Y2UNK/=%5$$.U*:;*0KNbF<ub9O[f/t6K$#k[
aWqY3dV2qrqY0d6.g<qrL=.U*:;*0KN\''ub9G6+'t8ATho9cd;A$G>8Fry
8xg:0\;-7%[.8< O]Owr6xT8y2u4FK5=o0[..952<9=7Tz#zy9i.\'.x6
>;$1#kr-x1.sEux6
6h$1#$396*.80vo<X'[=qS K UX.PW k%*.%Gu<-$#l
8-w'[X/$8Qs;*[ $%gp-C7A70\;2<X'[bqS K%(8Y*:y
k32X7Z![9yG[5-ry
e2Zv9#T8B33t98
X<03aM%#o2<0/:0zw'932/r0Q
$9c*VdXK[]o23_JW<wG3YX8
X256;>7/M-7c1$6%(Xr:GV,Zf2<y0
Z.[5'OXg,.p59BA1,T/;I]O$.yxk[]O1l
!*$;5M266[5-/B:5h8
X256;>7*SuYa166[55/BtPI3<3*\Y-9_5 vDlNK/M$CP462F.X6
BIg8[9:cIaG.QRQR:Jn6%)+%$#K[
+t'Y=O$6G(xVdaG.p59B9g3s[T5cCiE8<k$c>i62')<atg3s[T$cCiE8<kba%kK[
aWqY3dV2qrqY0d6.g<qrL=.U*:;*0KNK3_<Wg3N./9;;y0
[1#$:B4/$]//='Y0
:=#$:5 2:_/5[MP#$%gp-C7A790t897a5_/2%'0/628
5C9=h$-#+Y
k32X7Z![9yG[5-ry
e2Zv9#o2<0/:0zq
H0[I:MsQ
.endl T_res
.lib F_res
.prot FREELIB
H]=3g\8
_:%_48uQP(6
:2VdXK[]o*5!JQ
$9P\,#D(cE10
o7/;Fb3Ie_JWQ%IZv_jwq%iz,_JQ
$9D'[=\M-/B:Pb#S K%z,_JQ
$9D'[=\;-/B:Pb#S K%zV_-)*2Z
$$6S/3*[ 8yQ6(e1:97/2%'2Zv#d(3*\+l
T#s k ux.p(Me :S0.i:C7A590t8)%-PE<6w6
:2.%gp9=PIe_;x3:V(=h#s k%(8y*:-/259[
+t'Y=OL
T#sOD0/62/ -!U(=>#Sod[ .#qp9!H2.YX iC[*=x+hP*\YL
T#s;B[4.#Q3W/xG39' iC[*5!R)*2Z
$$6'k0]$a.#Q3M/xG:0\;2<Dzyh+,9!V0
o7/5<M$I[6%S+)%SP7/59=piE6\(>ef(=<8
_:c6uW.*/QFdZYJ;+:C6(8Y*:q=aSZE<6P6
:2.8Z oC[*;<+I:C6(8Y\;q=ajZ$V)*IZ
-61'$U6
:2.YXK[]oGJ_7j9!HWs]#sOD[ .%QR3e%(=iE3x9D ,#XS )y:ZbR)*2L)k[
aWqY0z,6sM-7%:P5-r:c6u8u/2[)YH*XEux9dL/8\mQXA1p!r)*2l)K[
aWqY0d6.gS )y+P5-r:c6(8y*:QXC*KH<6pqU1$6')+%$#.%0(xu2505;RY
8xg:9\;QXA17XEux9D3T#D oC74y]3,9!JWs]#s;*[ 8y/2[)YHp0.H=uY0
Z.[5'OXUHO/59bajL
!*$;5M0
o7//']o3T9q+H/*t9j<6m9da6.p59BA:zX3J(u25;[
aWqr2zV.P(mEV+T3uWQR2Zv#d(>e1Jt3Uq
$9D ,90t8)yGVUZf2<Dz$t#K!nD3T9,Sod0/62/2X6
:2.YX o)yGVU\;q=X$$9cdqY2UN6DM+%D'k[
aWq%cz,_7Sod[4.##_:b8!.8<K5CP48U/2X6
:2.8Z i)yG:9\Mq=X5$9cdqY2UN6'K+dD'X]#sfB6Z,_7sfB6Z,6\6<wGg:0z<QR038u/2x6
:2.8Zv2]>*k6'K0]$A.#.K!nD3T9,S;b.I6S/2X9d3t#dT8)Yg:0\;2<dZ=9CDQy2un6')+%$#.%0RY
8xg:9\;-7d3/#ds+9\2/42s;*0[.8z Oc71$6')+%[ y]/59=PzV6\6<WgG:0Z<qY2zV#DS -y0
Z9$f%47262Zf;*02g70W<030
o7X(ojcUX.PWF)10
o7kK-[XO:_3WUkAH$9cd;)10
Z.[5'OXg6+GT8) 2..952<ah$6W;-[z
-61'$U9D4y]X<q4y2.,qrFAD]o6D=<-$#N6w;X6
BIg8[9:cCiE8<k-7C[.gAsOD$#O6dm<-$#n6W;x6
BIg8[9:]d;:_jX('/0
Z.[5'OXi.\'(x]d;:FjXW/*Hn=<6)q0N:%)sfatg,T/;I]Ok4FK5=o01l
!*$;5M2.,g$2)yG3t-<qr2zV.Pry
e$;:1KwqKa1R6g$2<6(/f/=%5$[.U*:;*0$.S*t8Y2UNK/=%5$$.U*:;*0KNbF<ub9O[f/t6K$#k[
aWqY3dV2qrqY0d6.g<qrL=.U*:;*0KN\''ub9G6+'t8ATho9cd;A$G>8Fry
8xg:0\;-7%[.8< O]Owr6xT8y2u4FK5=o0[..952<9=7Tz#zy9i.\'.x6
>;$1#kr-x1.sEux6
6h$1#$396*.80vo<X'[=qS K UX.PW k%*.%Gu<-$#l
8-w'[X/$8Qs;*[ $%gp-C7A70\;2<X'[bqS K%(8Y*:y
k32X7Z![9yG[5-ry
e2Zv9#T8B33t98
X<03aM%#o2<0/:0zw'932/r0Q
$9c*VdXK[]o23_JW<wG3YX8
X256;>7/M-7c1$6%(Xr:GV,Zf2<y0
Z.[5'OXg,.p59BA1,T/;I]O$.yxk[]O1l
!*$;5M266[5-/B:5h8
X256;>7*SuYa166[55/BtPI3<3*\Y-9_5 vDlNK/M$CP462F.X6
BIg8[9:cIaG.QRQR:Jn6%)+%$#K[
+t'Y=O$6G(xVdaG.p59B9g3s[T5cCiE8<k$c>i62')<atg3s[T$cCiE8<kba%kK[
aWqY3dV2qrqY0d6.g<qrL=.U*:;*0KNK3_<Wg3N./9;;y0
[1#$:B4/$]//='Y0
:=#$:5 2:_/5[MP#$%gp-C7A790t897a5_/2%'0/628
5C9=h$-#+Y
k32X7Z![9yG[5-ry
e2Zv9#o2<0/:0zq
H0[I:MsQ
.endl F_res
.lib S_res
.prot FREELIB
H]=3g\8
_:%_48uQP(6
:2VdXK[]o*5!JQ
$9P\,#D(cE10
o7/;Fb3Ie_JWQ%IZv_jwq%iz,_JQ
$9D'[=\M-/B:Pb#S K%z,_JQ
$9D'[=\;-/B:Pb#S K%zV_-)*2Z
$$6S/3*[ 8yQ6(e1:97/2%'2Zv#d(3*\+l
T#s k ux.p(Me :S0.i:C7A590t8)%-PE<6w6
:2.%gp9=PIe_;x3:V(=h#s k%(8y*:-/259[
+t'Y=OL
T#sOD0/62/ -!U(=>#Sod[ .#qp9!H2.YX iC[*=x+hP*\YL
T#s;B[4.#Q3W/xG39' iC[*5!R)*2Z
$$6'k0]$a.#Q3M/xG:0\;2<Dzyh+,9!V0
o7/5<M$I[6%S+)%SP7/59=piE6\(>ef(=<8
_:c6uW.*/QFdZYJ;+:C6(8Y*:q=aSZE<6P6
:2.8Z oC[*;<+I:C6(8Y\;q=ajZ$V)*IZ
-61'$U6
:2.YXK[]oGJ_7j9!HWs]#sOD[ .%QR3e%(=iE3x9D ,#XS )y:ZbR)*2L)k[
aWqY0z,6sM-7%:P5-r:c6u8u/2[)YH*XEux9dL/8\mQXA1p!r)*2l)K[
aWqY0d6.gS )y+P5-r:c6(8y*:QXC*KH<6pqU1$6')+%$#.%0(xu2505;RY
8xg:9\;QXA17XEux9D3T#D oC74y]3,9!JWs]#s;*[ 8y/2[)YHp0.H=uY0
Z.[5'OXUHO/59ba55[
+t'Y=OL
T#s%5$#:0z((e J;H<6M9DA6.P59ba:Zx-lmS25;[
aWqr2zV.P(mEH+T3uWqr2zV#D(>EVvT3uQ
$9D ,90t8)yGVUZf2<Dz$t#K!nD3T9,Sod0/62/2X6
:2.YX o)yGVU\;q=X$$9cdqY2UN6DM+%D'k[
aWq%cz,_7Sod[4.##_:b8!.8<K5CP48U/2X6
:2.8Z i)yG:9\Mq=X5$9cdqY2UN6'K+dD',]#sfB6Z,_7sfB6Z,6\6<wGg:0z<QR038u/2x6
:2.8Zv2]>*k6'K0]$A.#.K!nD3T9,S;b.I6S/2X9d3t#dT8)Yg:0\;2<dZ=9CDQy2un6')+%$#.%xRY
8xg:9\;-7d3/#ds+9\2/42s;*0[.8z Oc71$6')+%[ y]/59=PzV6\6<WgG:0Z<qY2zV#DS dy0
Z9$f%47262Zf;*02g70W<030
o7X(ojcUX.PWF)10
o7kK-[XO:_3WUkAH$9cd;)10
Z.[5'OXg6+GT8) 2..952<ah$6W;-[z
-61'$U9D4y]X<q4y2.,qrFAD]o6D=<-$#N6w;X6
BIg8[9:cCiE8<k-7C[.gAsOD$#O6dm<-$#n6W;x6
BIg8[9:]d;:_jX('/0
Z.[5'OXi.\'(x]d;:FjXW/*Hn=<6)q0N:%)sfatg,T/;I]Ok4FK5=o01l
!*$;5M2.,g$2)yG3t-<qr2zV.Pry
e$;:1KwqKa1R6g$2<6(/f/=%5$[.U*:;*0$.S*t8Y2UNK/=%5$$.U*:;*0KNbF<ub9O[f/t6K$#k[
aWqY3dV2qrqY0d6.g<qrL=.U*:;*0KN\''ub9G6+'t8ATho9cd;A$G>8Fry
8xg:0\;-7%[.8< O]Owr6xT8y2u4FK5=o0[..952<9=7Tz#zy9i.\'.x6
>;$1#kr-x1.sEux6
6h$1#$396*.80vo<X'[=qS K UX.PW k%*.%Gu<-$#l
8-w'[X/$8Qs;*[ $%gp-C7A70\;2<X'[bqS K%(8Y*:y
k32X7Z![9yG[5-ry
e2Zv9#T8B33t98
X<03aM%#o2<0/:0zw'932/r0Q
$9c*VdXK[]o23_JW<wG3YX8
X256;>7/M-7c1$6%(Xr:GV,Zf2<y0
Z.[5'OXg,.p59BA1,T/;I]O$.yxk[]O1l
!*$;5M266[5-/B:5h8
X256;>7*SuYa166[55/BtPI3<3*\Y-9_5 vDlNK/M$CP462F.X6
BIg8[9:cIaG.QRQR:Jn6%)+%$#K[
+t'Y=O$6G(xVdaG.p59B9g3s[T5cCiE8<k$c>i62')<atg3s[T$cCiE8<kba%kK[
aWqY3dV2qrqY0d6.g<qrL=.U*:;*0KNK3_<Wg3N./9;;y0
[1#$:B4/$]//='Y0
:=#$:5 2:_/5[MP#$%gp-C7A790t897a5_/2%'0/628
5C9=h$-#+Y
k32X7Z![9yG[5-ry
e2Zv9#o2<0/:0zq
H0[I:MsQ
.endl S_res
