*=============================================================================
* Xilinx Confidential
* Copyright (c) 2006 Xilinx Inc. - All rights reserved.
*
* Revision : 1.01
* Date     : 08/14/2006
* BSIM4 Ver: BSIM4.3
* HSPICE   : HSPICE 2005.03 or later
*=============================================================================
******************************************************************************
*                                                                            *
*      !!! THIS FILE CONTAINS XILINX CONFIDENTIAL INFORMATION !!!            *
*      THIS FILE MAY NOT BE COPIED OR TRANSFERED TO ANYONE WITHOUT           *
*      PERMISSION FROM XILINX, INC..                                         *
*                                                                            *
******************************************************************************
******************************************************************************
.LIB COMMON
.prot FREELIB
H]=3g\#SZK_zy]#+H/J2o7Jx((X$$x++m9y0
Z.[5'OXGaS2 -7XjZx#<:/B:97aW(E1Ek[
+t'Y=O$62d+9a2p!3uY
e$;:1KwQN>\6_7w(e1y$T#+h/f2O7jX(ux1l
!*$;5M2.oGD2)Y25!jw591-p$#_:/b:;]8
X256;>7/Dz]x*$x+pc6
BIg8[9:CgA #\(X91-P$#_:/B:;7aW(E1)$]8
X256;>7/D%N[ZY]#uh/x[$X++)9:2p!j,x6
BIg8[9:Cg!8##(:/bH5[
+t'Y=O$62/T][*k7Jx(2X$$x++#9:2P!J3:7Z
-61'$U9d![o* -7xJzX#<:/b:97Aw(e1eK[
+t'Y=O$62d2=X*$X+PC6
BIg8[9:CgA #34-7X:ZxuW$91-PE#_:/B:s77Q
H]=3g\#SZKgz7<qr:'B:$f#+H/*2o7Jx((y0
Z.[5'OXGaO\pP9a2p!33Y
e$;:1KwQN>\8\QwQN>\8=rq
H]=3g\#SZKgz>_#SZKgz7<8
X256;>7/Dz=M2Y7/Dz= +l
!*$;5M2.oG[+[%*K7jX($x$$X++#9:2p!j3:7z
-61'$U9d![o\PC)Y25!jw591-pi#_:/b:;]8
X256;>7/Dz= J$_#+H[u0
Z.[5'OXGaS: ur-*$62/T= jL
!*$;5M2.oGD+oIPY7/D%N[H5[
+t'Y=O$62d+Oip$_#SZn[h5[
+t'Y=O$62/T] +y]#+H/*2o7Jx((X$$x++m9y0
Z.[5'OXGaS2t3Ia1$b++:AX:ZxuW$91-PE7Q
H]=3g\#SZn$h07qW(e )l
!*$;5M2.oG[2oA2.oG[2[v0
Z.[5'OXGaS2tu)XGaS2t3IZ
-61'$U9d!A.Kw-9d!A.34Y
e$;:1KwQN>\6\%y-7x:zXUw$91-pe#_:/b:S77q
H]=3g\#SZKgI>,9(X9%-P7,W(E1t$t#+H/F1L
!*$;5M2.o2TUR-2Y7Jx3UZ
-61'$U9d![D\2-7x:z=-w$91-pe#_:/b:S77q
H]=3g\#SZKgzJ_7WcE12N7Jx3'X$$x++#7Z
-61'$U9d!A#Sw-91-7>8
X256;>7/D%J$'Y]#+h[%2O7jX((x$$X++M9Y0
Z.[5'OXGaS2t )y25!JW591-7b#_:/B:;]8
X256;>7/Dz]72Y7Jx3SZ
-61'$U9d![#QR:/b:97Awl91-pe#':'b:$c#RY
e$;:1KwQk>ZY]#+h[U2O7jX((Y0
Z.[5'OXGaS*(X91-P$#_:vX:Zx]W=9%-P7FWX6
BIg8[9:C>A6_7W(E )$t#+H/F1L
!*$;5M2.oG +)Y2p!jH:8x=$X++#9l25!jwb9Y0
Z.[5'OXG[S\ -7X:Z=;W$91-PE7Q
H]=3g\#SZK$zy]#+H/J2o7)W(E1E$5#UH/XK$]8
X256;>7//%][*K7jX3ux$$X++#7z
-61'$U9d![#34-7x:zXUw$9t2p!j,:qxJzX#.:7z
-61'$U9da[#34-7x:z=;w$91-pe7q
H]=3g\#SZK[Oy7/d%= +L
!*$;5M2.sG U)xg[s\Pp6
BIg8[9:CgA6=R(X91-PI#_:vX:Zx]W=9%-P7FWX6
BIg8[9:C>A6=R(X91-7j#_:/B:;]8
X256;>7/D%]M*$62/2[v0
Z.[5'OXG[S*9-9DA[.34y
e$;:1KwQN>Z7BQR:/b:(7Awl91-pe#':'b:$c#RY
e$;:1KwQk>Z7BQR:/bHS7Aw(e1eK[
+t'Y=O$62/+Oipy7/d%= jL
!*$;5M2.sG UR-*$6G/+[%0
Z.[5'OXGaS*9F\a1$x++w9:2R7Jx((XW$b++:;X1L
!*$;5M2.sGTUR-*K7jX3ux$$X++#7z
-61'$U9d![#S(x91-7B#_:Vx:zX]w=9%-p7fwx6
BIg8[9:C>A8%qr:/Bhs7aW(E1Ek[
+t'Y=O$62/2xa1$x+pc9:2R7Jx((XW$b++:;X1L
!*$;5M2.sGT )Y2p!33:8x:zX]RY
e$;:1KwOJIZY7jX($z
-61'$U9p\3.Qw(e1Tl
!*$;5M2vD% +)x:ZxuQ
H]=3g\#;Tr$zy7jX($z
-61'$U9p\3#34-91-7b8
X256;>7d[f=M2Y7d[f= +l
!*$;5M2vD%T3iA2P!3Uy
e$;:1KwOJIi>_#;tR$H0[
+t'Y=O$Y:=+[%*P!3Q
H]=3g\#;Tr[O3+q;Tr[h5[
+t'Y=O$Y:=2Oipyx+py
e$;:1KwOJIZj_#+H'/0
Z.[5'OX  ,*2-91-5H8
X256;>7d[7%[*$62/T=X  )DO+)XGaS: :%_fV1\(:CgAa##;T3Px8_#SZn[0
Z.[5'OX  )Z -9d![D\wOJEu'#QwQN>\87d[7B=ZY7/D%N[2vD4kj=A2.o2 Y
e$;:1KwOJE 6_#SZK_I$Y:Oo3$*$62/T]X  )D$2)XGaS2t:%_fVn*(:Cg!6[
+t'Y=O$Y:O<]a2.oG[29p\'94T-9d![D*wOJEuG.QwQN>!67d[7BKiY7/Dz]z
-61'$U9P\'Y\ -9D![d\ :%_Fv)\ -cGa #\woje g#\(qn>!8##;t3pX8#QszN[Zl
!*$;5M2Vd4K+=a2.Og[+=X  )zo+=AgAs: +9P\'9[ +)D![O\ :%_F/N\ -cG!8#8
X256;>7d[7%$ZY7/D%J$Z$Y:Oo3$zy62/T][2vD4;'][*.oGD2=x  )D>2=aGaO* y
e$;:1KwOJEu6#QwQN>\6##;T30f6#qSZK_I87d[7B=i8_/D%N$Z$Y:O<_$zy62d2=Z
-61'$U9P\'Y\pP)XGaS: u9p\'y4 3iAgAs: U9P\'Y[ 3IaGaS2 u9p\'yb 3iAgAo\9Y
e$;:1KwojeU8=R(:CgA #kWOJEu'#34-cGa #KwojeUg#34-CgAa#kWOJEu+#34-cG!8\8
X256;>7d[7%$H0_#szk_i>7D[7%eI7<qSZK_I>7d[7%=i7<QwQN>!6\#;T3Px6=R(:Cg!6\8
X256;>7d[7B$H0_#szk_i>7D[7beI7<qSZK_I>7d[7B=i7<QwQN>!6\#;T30x6=R(:Cg!6\8
X256;>7D[7%[Oy7/d%j[O$y:oO3[oY62/t=M2Vd4;'=m*.Ogd+OX  )d>+oAgAo\9Y
e$;:1KwojeU8\qWqn>\8\#;t30F8\Qszk_Z>7D[7b=z>_/d%n[O$y:o<_[oY62D+oz
-61'$U9p\'y*9-9d![D*9:%_fV)*9-CgA .kWOJE G.K(:cGaA.Kwoje +.k(:Cg!6\8
X256;>7d[7B$oY7/D%J$o$Y:O<3$Oy62/T]m2vD4k']M*$62/z]M2Vd4KJ]m*$62d2OZ
-61'$U9P\'Y\9F\a2.Og[+Oip$y:oO3[o3+Qszk_Z>,9woje g#k=6)D![O\9F\X  )d>+oIPY62D+oIPl
!*$;5M2Vd4K+Oipy7/d%j[O3+#;t30F8\%y-cGa #K=69P\'9[ ur-*.Ogd+Oip$y:o<_[o3+QszN[o3+8
X256;>7D[7%$O3+qWqn>\6\%Y:%_Fv)*9f\AgAs:TUR-2Vd4;']ml<_#SZKgI>,9WOJE +.K=6)xgAo*9f\z
-61'$U9P\'9*9F\a2.Og[2Oip$y:o<3$o3+Qszk_i>,9wojeUg.k=6)XGaS2tur-2vD4kj]ML<_#szN$o3+8
X256;>7d[7%['Y7/D%J['$Y:Oo3['y62/T=72vD4;'=7*.oGD+Xx  )D>+xaGaO\2y
e$;:1KwOJEu8%QwQN>\8%#;T30f8%qSZK_zJ7d[7B=Zj_/D%N['$Y:O<_['y62d+xZ
-61'$U9p\'y*2-9d![D*2:%_fV)*2-CgA .sWOJE G.S(QN>!6%#;T3Px6%qSZn$'L
!*$;5M2vD4k2XA2.oG[2Xx  )ZO2xaGaS:t 9p\'9[T )d![o*2:%_f/n*2-Cg!6%8
X256;>7d[7%2Zj_#ihu%0
Z.[5'OX  )Z)+xa2P!]hy
e$;:1KwOJE t.S(::bJ*[
+t'Y=O$Y:O<*$'y7Jx#SZ
-61'$U9d  RQ+Y
e$;:1KwOJ4 8_#Soj42vD$k+)xGVd$Q
H]=3g\#;T0PIy7/;t0x  rZt-9d  R8
X256;>7d[r%[ZY7/;t0x  rZ +)XGVd$Q
H]=3g\#;T0PI8_#Soj42vD$k2=A2.y:!Y
e$;:1KwOJ4 8\QsOJ42vD$k+oAgvD$q
H]=3g\#;t0pZ>,9(Q%_m$y:!<=ML<_/;t0z
-61'$U9P\\Y\pP)D  r#;T00z7<qSoj40
Z.[5'OX  rDtu)D  r#;T00I>_/;T0Z
-61'$U9P\\Y*9F\aGVd$Woj4U6\%Y-CP\\[
+t'Y=O$y:!O] +Y6d[r9p\\9*Pp)d  R8
X256;>7d[r%['Y7/;t0x  rZ  )XGVd$Q
H]=3g\#;T0PIJ_#Soj42vD$k2XA2.y:!Y
e$;:1KwOJ4 t#S(39p\\9<  ) 0
Z.[5'OX  rD)2xah$Y:!<*$'y=8
X256;>7d[IypZY7jX>:x  U';7=a2P!VI:%_4:Y[ -91-)h#;Td6 +#q+y
e$;:1KwOJC3/#Qw(e/s$Y:M;bezy7Jx>:X  U'K'=a2P!VI:%_4:9B -/Z
-61'$U9p\,8dT-91-)H#;Td6 '.qW(E/S$Y:M;%=Iy7Jx>:X  U';J]a:L
!*$;5M2vDx5<]A2p!vi:%_4:94t-91-)h#;Td6Ug.qW(E/S$Y:M;bkIyx8
X256;>7d[IypZ8_#+h:/2vDx5O3[ZY7jX>:x  U';'=[*$x+I>9p\,8d>+=A:l
!*$;5M2vDx5<=[*$X+i>9p\,8zo+=A2p!vi:%_4:9[ +)X:ZhVWOJC3/N\ -/z
-61'$U9p\,8dT+)x:zHvwOJC3v)* -91-)H#;Td6 g.\(:/BS)7d[IypX6#Q+Y
e$;:1KwOJC3/.\(:/bs)7d[Iy0F6#Qw(e/s$Y:M;b=I8_#+H:/2vDx5<_$ZYX8
X256;>7d[IypZ7<Qw(e/s$Y:M;%ez7<qW(E/S$Y:M;%=z7<qW(E/S$Y:M;%kz7<q+y
e$;:1KwOJC3/#34-91-)H#;Td6U'#34-91-)h#;Td6Ug#34-91-)h#;Td6U+#34-/Z
-61'$U9p\,8dT3iA2p!vi:%_4:Y4t3Ia2P!VI:%_4:Y[t3Ia2P!VI:%_4:YBt3Ia:L
!*$;5M2vDx5<] +Y7jX>:x  U'K7] +y7Jx>:X  U'K'] +y7Jx>:X  U'KJ] +yx8
X256;>7D[iYPz>_#;Td6 8=RWojc3V)\9-9P\,8DO+[V2VdX5o5[Oy7D[iYP;8=RWojc3Vn\9-9P\,8D>+[V0
Z.[5'OX  u'k+oA2vDx5<= +$y:m;BEZ>_#;tD6u'#34:%_4:9[ U)x  u'k'= +$y:m;BKZ>_#;tD6u+#34Y
e$;:1Kwojc3V.k(:%_4:Y*pP9P\,8DO2Oa2VdX5o3$h07D[iYP;6\qWojc3V1*pP9P\,8D>2Oa2VdX5o_$h0[
+t'Y=O$y:m;B$oY7d[Iy0i7<#;tD6u'.K(:%_4:94T3ix  u'k']M*$y:m;B=i7<#;tD6u+.K(:%_4:9bT3iz
-61'$U9P\,8D 3'a2P!VI:%_4:Y4 3'a2P!VI:%_4:y[ 3'A2p!vi:%_4:YB 3'a:L
!*$;5M2VdX5<= jy7Jx>:X  U'K7= jy7Jx>:X  u'k'= JY7jX>:x  U'KJ= jyx8
X256;>7D[iYPz>,9(:%_4:Y\pc9P\,8DO+Oipy7D[iYPf8=-Wojc3V1\9F\a2VdX5o5[h57D[iYPx8\%Y-9P\,8D>+[%0
Z.[5'OX  u'k+oIPY7d[Iy0Z7B#;tD6u'#K=6)x  u'k7= J$y:m;B=Z>,9(:%_4:9[ 3'x  u'kj=ML<_#;tD6u+#3uY
e$;:1Kwojc3V.k=6)X:ZhVWojc3V)*9F\a2P!VI:%_4:y[TUR-*$X+i>9P\,8D>2Oipyx8
X256;>7D[iY0I>,9(:/BS)7D[iY0f6\%Y-91-)h#;tD6uG.K=6)x:zHvwojc3/n*9F\a:L
!*$;5M2vDx5O=7*$X+i>9p\,8do+XA2p!vi:%_4:Y[  )X:ZhVWOJC3vN\2-/z
-61'$U9p\,8z  )x:zHvwOJC3/)\2-91-)H#;Td6Ug#s(:/BS)7d[Iy0X8%Q+Y
e$;:1KwOJC3v.S(:/bs)7d[IypF6%Qw(e/s$Y:M;%=IJ_#+H:/2vDx5O_$'YX8
X256;>7d[Iy0ij_#+h:/2vDx5<3$'Y7jX>:x  U'K']7*$x+I>9p\,8z>2XA:l
!*$;5M2vDx5O*7*$X+uC6
BIg8[9:%_4:9<2-91-5b8
X256;>7d[IyE 8_#+h2h0
Z.[5'OX  U'O<=a2P!5ly
e$;:1KwOJC3'y*(:/bs5[
+t'Y=O$Y:M;30Iy7Jx>'Z
-61'$U9p\,84;+=A2p!;3Y
e$;:1KwOJC3'9\ -91-SJ8
X256;>7d[IyE 6#Qw(e/Jl
!*$;5M2vDx57B$ZY7jX>'z
-61'$U9p\,84;+[v*$X+,E6
BIg8[9:%_4:)Z 3Ia2P!]ly
e$;:1Kwojc3'Y\9-9P\,84;+[V0
Z.[5'OX  u'o<=M*$y:m;30Z7<8
X256;>7d[IyE 6=r(:[b:*[
+t'Y=O$Y:M;30I7<qW3E1vL
!*$;5M2VdX57%$Oy7D[iYe 6=RQ
H]=3g\#;tD6F/.K(:%_4:)zT3iz
-61'$U9P\,84;+[%*$x+Iy
e$;:1Kwojc3'9\pc)X:Zh8
X256;>7D[iYe 8\%Y-9P\,84;+[%0
Z.[5'OX  u'o<=ML<_#;tD6F/#3uY
e$;:1Kwojc3'Y*9F\a2P!u3y
e$;:1Kwojc3'9*9F\a2P!u3y
e$;:1KwOJC3'y\2-91-9e8
X256;>7d[IyEu8%Qw(ejel
!*$;5M2vDx57%$'Y73XC/z
-61'$U9p\,84k2XA27!-+Y
e$;:1KwOJCZ,##(:/bH0[
+t'Y=O$Y:M+d$2y7Jx3IZ
-61'$U9p\,#x +9A2p!34Y
e$;:1KwOJCZ,.\w-91-7<8
X256;>7d[I=CZ7<#(:/bH0X8
X256;>7D[i=cz>7qWojcz,#34y
e$;:1Kwojcz,.34:)X:Z=R+y
e$;:1KwOJCZ,.Kw-9p\,#xT3iz
-61'$U9P\,#X 3'X*$x+pP/Z
-61'$U9P\,#X ur-2y7D[i=cz7b8
X256;>7D[i=cI>,9W-91-7<JQ
H]=3g\#;Td[48%qW3EH:L
!*$;5M2vDx I]7*$=+L(6
BIg8[9:%_faSD -CgA87d[7N> '#Qszk[0
o7d[7N> G#Qszk[2vD4D%%KZY]/Dz=lJK[
+t'Y=O$Y:OZK0zy62/+9p\'oGk7=AgAs\q
$9p\'oGk'=AgAs\wOJE![9b -7d!A#Eux6
BIg8[9:%_faSDt-CgA67d[7N> '.Qszk$0
o7d[7N> G.Qszk$2vD4D%%KiY]/Dz]lJK[
+t'Y=O$Y:OZK0Iy62/29p\'oGk7]AgAs*q
$9p\'oGk']AgAs*wOJE![9bT-7d!A.Eux6
BIg8[9:%_faSD +)D![#\WOJE![y4 +)d![#\q
$9p\'oG;'=[*.oG +9p\'oG;j=[*K62D+=lJK[
+t'Y=O$Y:OZK0z8_/d%=[2vD4D%BEZ8_/D%=[0
o7d[7N>uG#\(QN>Z87d[7N>u+#\(xcG!8#Eux6
BIg8[9:%_faSDt+)D![.\WOJE![y4T+)d![.\q
$9p\'oG;'][*.oGT+9p\'oG;j][*K62D2=lJK[
+t'Y=O$Y:OZK0I8_/d%][2vD4D%BEi8_/D%][0
o7d[7N>uG.\(QN>i87d[7N>u+.\(xcG!6#Eux6
BIg8[9:%_faSD 3IaGaS\9:%_faSDO+[V*.Og u6
:2vD4D%%=Z7<Qszk[o$Y:OZKPx8=R(XCg!8\eUX6
BIg8[9:%_faSZ 3IaGaS\9:%_faSZO+[V*.Og u6
:2vD4D%B=Z7<Qszk[o$Y:OZK0x8=R(XCg!8\eUX6
BIg8[9:%_faSD u)P\'Og;+[V2vD4D%%EZ>_d[7N> '#34Y
8x  )2/o5[OyY:OZKP;8=RWOJE![yb U)p\'oG;j= +l
!*$;5M2vD4D%B[oYy:ozk0Z7<#;T3gA/)\9-%_faSZO+[V0
o7d[7N>uG#K(OJE![9[ 3ix  )2/<_[OyY:OZK0x8=RQ
H]=3g\#;T3gAV.34-CgA6\#;T3gAV)*pP)D![.kQ
$9p\'oG;'] +Y62/2ox  )2/o_$h0_7SZn$O-b7Q
H]=3g\#;T3gA/.34-CgA6\#;T3gA/)*pP)D![.kQ
$9p\'oGk'] +Y62/2ox  )2/<_$h0_7SZn$O-b7Q
H]=3g\#;T3gAV.k(oje![Y*pP9p\'oG;7]M*vD4D%%Ei7<8
_:%_faSD$2Oa  )2/o5$h07d[7N> +.K(OJE![ybT3iz
-61'$U9p\'oGk2oA  )2/<] +$Y:OZK0f6\q;T3gA/)*pP6
:2vD4D%B=i>_d[7N>uG.34:%_faSZ>2Oa  )2/<_$h0[
+t'Y=O$y:ozkpZ>,9(QN>Z>,9woje![Y4 ur-*.Og ur-0
o7D[7n> g#k=6)D![#k=69P\'Og;J=ml<_7SZn[O3+eUX6
BIg8[9:%_FAsz UR-*.oG UR-2Vd4d%bez>,9(qn>z>,9Q
$9P\'OgK'=ml<_/d%=ml<7D[7n>U+#k=6)yGaO\9F\Ljk[
+t'Y=O$y:ozkpi>,9(QN>i>,9woje![Y4tu)D![.k=66
:2Vd4d%%=I>,9(qn>I>,9Woje![YBtu)yGaO*9F\Ljk[
+t'Y=O$y:ozk0i>,9(QN>i>,9woje![94tu)D![.k=66
:2Vd4d%b=I>,9(qn>I>,9Woje![9Btu)yGaO*9F\Ljk[
+t'Y=O$Y:OZKPzJ_/d%=72vD4D%%EZj_/D%=70
o7d[7N> G#S(QN>Zj7d[7N> +#S(xcG!8%Eux6
BIg8[9:%_faSZ  )D![#sWOJE![94  )d![#Sq
$9p\'oGk'=7*.oG  9p\'oGkj=7*K62D+XlJK[
+t'Y=O$Y:OZKPIJ_/d%]72vD4D%%Eij_/D%]70
o7d[7N> G.S(QN>ij7d[7N> +.S(xcG!6%Eux6
BIg8[9:%_faSZt )D![.sWOJE![94T )d![.Sq
$9p\'oGk']7*.oGT 9p\'oGkj]7*K62D2XlJK[
+t'Y=O$Y:OZKP(8%qW(E%YL
!*$;5M2vD4D%B2Zj_#+h:h0
Z.[5'OX  )2/o*$'y7Jxc2Z
-61'$U9p\'oGk9]7*$X+i#6
BIg8[9:CP\>)'(3E10
Z.[5'OX  \45o=aGVdkO;9p\>)';7=AgvDKo;9p\>)';'=AgvDKo;9p\>)';j=AgvDKo;6
BIg8[9:%_O'8Z -CP\>)'WOJMF:94 -cp\>)'wOJMF:9[ -cp\>)'wOJMF:9b -cp\>)'q
H]=3g\#;TOe3V.qSojmf:7d[U36 '.QsOJMF:7d[U36 G.QsOJMF:7d[U36 +.QsOJMF:[
+t'Y=O$Y:97Y0Iy6D[u362vDKo;BEiY6d[U362vDKo;B=iY6d[U362vDKo;BKiY6d[U360
Z.[5'OX  \45o=[*.Y:97YX  \45o3[zy6D[u360
o7d[U36 G#\(Q%_o'8#;TOe3Vn\ -CP\>)'Q
H]=3g\#;TOe3/#\(q%_O'8#;TOe3/)\ -CP\>)'Q
$9p\>)'k'=[*.y:97yx  \45<_[zy6D[u360
Z.[5'OX  \45o][*.Y:97YX  \45o3$zy6D[u360
o7d[U36 G.\(Q%_o'8#;TOe3Vn* -CP\>)'Q
H]=3g\#;TOe3/.\(q%_O'8#;TOe3/)* -CP\>)'Q
$9p\>)'k'][*.y:97yx  \45<_$zy6D[u360
Z.[5'OX  \45o=7*.Y:97YX  \45o3['y6D[u360
o7d[U36 G#S(Q%_o'8#;TOe3Vn\2-CP\>)'Q
H]=3g\#;TOe3/#s(q%_O'8#;TOe3/)\2-CP\>)'Q
$9p\>)'k'=7*.y:97yx  \45<_['y6D[u360
Z.[5'OX  \45o]7*.Y:97YX  \45o3$'y6D[u360
o7d[U36 G.S(Q%_o'8#;TOe3Vn*2-CP\>)'Q
H]=3g\#;TOe3/.s(q%_O'8#;TOe3/)*2-CP\>)'Q
$9p\>)'k']7*.y:97yx  \45<_$'y6D[u360
Z.[5'OXGVdk %) -P[
+t'Y=O$Y:9+KPzy6D[u=>2vDK %%EZY6d[U=>2vDK %%=ZY6d[U=>2vDK %%KZY6d[U=>0
Z.[5'OX  \\/<=aGVdk %9p\>#Gk7=AgvDK %9p\>#Gk'=AgvDK %9p\>#Gkj=AgvDK %6
BIg8[9:%_O8SDt-CP\>#gWOJMZ[y4T-cp\>#GwOJMZ[y[T-cp\>#GwOJMZ[ybT-cp\>#Gq
H]=3g\#;TO[A/.qSojmz[7d[U=>u'.QsOJMZ[7d[U=>uG.QsOJMZ[7d[U=>u+.QsOJMZ[[
+t'Y=O$Y:9+KPz8_/;TO[A$Y:9+KPf8#qSojmz[[
aWOJMZ[y[ +)d  \\/:%_O8SD>+=aGVdk %6
BIg8[9:%_O8SZ +)D  \\/:%_O8SZO+=aGVdk %6
:2vDK %B=Z8_/;to[a$Y:9+K0x8#qSojmz[[
+t'Y=O$Y:9+KPI8_/;TO[A$Y:9+KPf6#qSojmz[[
aWOJMZ[y[T+)d  \\/:%_O8SD>2=aGVdk %6
BIg8[9:%_O8SZt+)D  \\/:%_O8SZO2=aGVdk %6
:2vDK %B=i8_/;to[a$Y:9+K0x6#qSojmz[[
+t'Y=O$Y:9+KPzJ_/;TO[A$Y:9+KPf8%qSojmz[[
aWOJMZ[y[  )d  \\/:%_O8SD>+xaGVdk %6
BIg8[9:%_O8SZ  )D  \\/:%_O8SZO+xaGVdk %6
:2vDK %B=Zj_/;to[a$Y:9+K0x8%qSojmz[[
+t'Y=O$Y:9+KPIJ_/;TO[A$Y:9+KPf6%qSojmz[[
aWOJMZ[y[T )d  \\/:%_O8SD>2xaGVdk %6
BIg8[9:%_O8SZt )D  \\/:%_O8SZO2xaGVdk %6
:2vDK %B=ij_/;to[a$Y:9+K0x6%qSojmz[[
+t'Y=O$6D[[na:Zx8
X256;>7d[[N[*$6D[[nZ
-61'$U9p\xo*(:CP\XO8
X256;>7d[[N[ZY7/;t-G0
Z.[5'OX  -2t+)XGVd0dy
e$;:1KwOJ3!8%QwQ%_/A[
+t'Y=O$Y:fZ]7*$6D[[nZ
-61'$U9DOXMsM-/B:;[
+t'Y=O$6KF0X0*p!j,Y
e$;:1KwqO f,_Jx3/Z
-61'$U9DO7)Z((E :L
!*$;5M2.\-Oi)1-5x8
X256;>7/9c30*P!-+y
e$;:1KwqO/f,_Jx>/Z
-61'$U9DO))Z((E/:L
!*$;5M2.\';Fda)L
!*$;5M2.\';FbahZ$8
X256;>7/t8da:ZxuQ
H]=3g\#sU[C*.\0V Dz
-61'$U9DO5UqSu[e4L
!*$;5M2.\;M-Cmh'U8
X256;>7/9>daG>=4My
e$;:1KwqOV4y6kp7dZ
-61'$U9DO9UqSu[e4L
!*$;5M2.\uM-Cmj'U8
X256;>7/9edaG>b4My
e$;:1KwqOF4y6kU7dZ
-61'$U9DO7xX(qO/f,[
+t'Y=O$6KP3DAg>H4mY
e$;:1KwqO j,_/9;%i4L
!*$;5M2..PK-/Bhs[
+t'Y=O$6KP<)doxmSkY
e$;:1KwqO%Uy6kp7bZ
-61'$U9DOs9qSu[eUL
!*$;5M2.\VK-Cmh'98
X256;>7/9PbaG>=4Ky
e$;:1KwqOJUy6kp7bZ
-61'$U9DO(9qSu'eUL
!*$;5M2.\yK-Cmj'98
X256;>7/9#baG>b4Ky
e$;:1KwqO :/_/9>300
Z.[5'OXg>=3k-cMs'98
X256;>7/93'0*.\';FbZ
-61'$U9p\,.p(Q]O4l
!*$;5M2vDx93)do7u8
X256;>7d[Io%*.\-mY
e$;:1KwOJCoS_/9MDz
-61'$U9p\,\v(Qo/4l
!*$;5M2vDx9p)do0u8
X256;>7d[Ioj*.\5mY
e$;:1KwOJCo(_/9WDz
-61'$U9P\,\y(qOH4L
!*$;5M2VdX9#)DO;U8
X256;>7D[iO :y6kp(dZ
-61'$U9P\,\3p-Cmh7U8
X256;>7D[iO jy6kpcdZ
-61'$U9P\/.P(q]oUL
!*$;5M2VdZ93)DO798
X256;>7D[<O%*.\-Ky
e$;:1Kwoj0Os_/9mbZ
-61'$U9P\/\V(qO/UL
!*$;5M2VdZ9P)DO098
X256;>7D[<OJ*.\5Ky
e$;:1Kwoj0O(_/9wbZ
-61'$U9P\/\y(qOHUL
!*$;5M2VdZ9#)DO;98
X256;>7D[<O :y6kp(bZ
-61'$U9P\/\3p-Cmh798
X256;>7D[<O jy6kpcbZ
-61'$U9d  \GT-[b:l
!*$;5M2vDK/2]O*.y:9%]z
-61'$U9p\>s*93)d  \GTY
e$;:1KwOJMa6\-(Q%_o[.8
X256;>7d[Uk$oS_/;to>il
!*$;5M2vDK/2o/*.y:9%]z
-61'$U9p\>s*9p)d  \GTY
e$;:1KwOJMa6\5(Q%_o[.8
X256;>7d[Uk$o(_/;to>il
!*$;5M2Vdk/2OH*.Y:9%]Z
-61'$U9P\>S*9#)D  \gty
e$;:1KwojmA6\3+-CP\>S*Q
H]=3g\#;to>i>=3(Q%_o[.8
X256;>7D[uK$O7bqSojmA6[
+t'Y=O$6D[ud6*7!JQ
H]=3g\#;TOc362qSojm4:[
+t'Y=O$Y:9iYmhy6D[ud60
Z.[5'OX  \X5u'aGVdkM;6
BIg8[9:%_O,8k3-CP\>U'Q
H]=3g\#;TOc3>hqSojm4:[
+t'Y=O$Y:9iYm+y6D[ud60
Z.[5'OX  \X5u2aGVdkM;6
BIg8[9:%_O,8kj-CP\>U'Q
H]=3g\#;toC3>>QsOJM4:[
+t'Y=O$y:9IyMeY6d[UD60
Z.[5'OX  \x5U[1*.y:9Iyz
-61'$U9P\>U'93[aGVdkM;6
BIg8[9:%_o,8KPC)d  \x5Y
e$;:1Kwq4a27!j!Y
e$;:1Kwq%izy7jX(/1m$6dm+)x:l
!*$;5M2.Y%t-91-pXj!:cp46_#+Y
e$;:1Kwq%iz8_#+H/1:\7/;i=[*$X8
X256;>7/;F][*$x++(/42.YXt+)X:l
!*$;5M2.Y% u)X:zXj+r9d ,#K(:/z
-61'$U9D 3#34-9d 3#KwQ%CZ7<QwQ%CZ>[
+t'Y=O$6d=2oA2P!J+(0XGVU*9-910
Z.[5'OXgv,*Pp)xGV,*9:CP46=R(:CP46\8
X256;>7/;F=ml<_#+h/1:\7/;I=ML<_#+Y
e$;:1Kwq%iz7bqWQ%IZ>,9wQ%CZ7BQwQ%CZ>,9q
H]=3g\#sOR$o3+Qw(E1:Pr#Sod$O3+qW(6
BIg8[9:cpL8%Qw(e1:pR#sOD['Y7JQ
H]=3g\#sOR$'Y7jX(/1m$6dm2XA2P[
+t'Y=O$,\9!ba2kK5)*(:ET3].=Uy0
Z.[5'OXl6\cK-9y=90.,$(25;Ce3X6
BIg8[9:r$O3+cK:)X1R$<6#8F(=EF'm7Z
-61'$U9D ,.P(:!1-pJ$q
H]=3g\#sODMHY7Jx([40
Z.[5'OXgvuKu-91-Px$Q
H]=3g\#sODM)Y7Jx(/40
Z.[5'OXgvuKi-91-Px$Q
H]=3g\#sODM+Y7Jx(/40
Z.[5'OXgvuKH-91-Px$Q
H]=3g\#sODMTY7Jx(/40
Z.[5'OXgvuKL-91-Px$Q
H]=3g\#sODMeY7Jx(/40
Z.[5'OXgvuKP()x:zXj!Y
e$;:1Kwq%cO7=qW(E1:\[
+t'Y=O$6dmU[%*$X++(0z
-61'$U9D4:x\((E%j\7/\%[[*p!jq
H]=3g\#sIy1iYX+uC0xGmS3t-/B:L
!*$;5M2.u'++=A:zB-!:c,a7#\((e10
Z.[5'OXg,8jT+)1-5B$wQ4>H6#Q+h/z
-61'$U9D4:x\2-/Bj5r#S.K zJ_Jx(6
BIg8[9:cC3p.S((e%J\7/\%[$'YX++Y
e$;:1Kw7NC2Y7jXC:xG'O%W-91-Pj$Wq3gl6=#(:/B:sr8
XUmp(37\W+o.u$,<Y9rX*$<VQ
$rm787QwW*\:p>#=u5e2Y7;X([25pX5wIo8Z$_#pH'25PxuWIo=F$_#hH/ (=$8
_6*6uhm\w-9/-570#+0[7j7Qw39$;:1K/A4A277KV[o. $_#+y
8>;6\t;:)Xj$42/uMP2Y73w!N3oWy#(:[X!TMkvo9A2p[
a;!MmdV7Qw396 /\t;:)X:$80vo<mdV_#+:Yg;J0kvo)X:L
T*);o. $_#p:5>z_9kvo)X:$%' 4bmdV_#+y
87ZW\#(:'V2jm4):)X17!]49!1:;tD203Dz.)7W MeI$_#R3ev:(0.+((: jm4s+cE1$%TOu9A27!]49!1:;[
a)2b6d'7QwMef2,4\2:)X1=<+U(IJ(=x3+$%c78%/ q3y234\2:)x17!<6(/f50!j)*(l)n9CDU5dZ.)7wFrX*$$+3)225p=Uq
$di2Y7jwfR[2Y73wIR[2Y7jX#(xl,7Qw(6
:4,7Qwp*\:7>#=i=X*$=#Mi=X*$x+4(2J23u%w-910
oUX=:)X:$,%/:)X:$U%/:)X:$,X/:)X:L
Txm%9A2p7%mfkx*$x#Mir>2Y7jwOR>2Y77Ph/vTt3j+E8p 3s/ Q3Y0
oYX/:)X550.,:3i2Y7.39!1:*74m:)X:$)*$;xX*$=8
_ mE3tD#(:7 -(<<6(/F$V%TOq=Dfk7d=%wG2Y7jX#'25pXYwox.fyx+I>U25;[
aY f12Y77+hu JOy92A/dZ.)7w.[X*$X+uE2/e$g-w-9\:ZxJp(( 2mj#(:7\Hp!5u$%,).#/ox6
:]s-#(:'Bt;b#M(9A29!Y+)$25pXYwO\7:$_#r(E*S7tD;6x1G864r:%-'77Qw(eUs7J8
_O\7J$_#r*/B:P=3U>8P <%-S+Ce1$Y92(dX*$]Jx(Uu)s$a;o\7:,6\S77X <%3m:)xH7>YP(/x <%-m:)x1p!jL#i/HOydy 'Cg864RY
8pu\-#(:/B:*IVWUw[P$_#3H/1)$+T[TrX*$3yxc'25P=JWO\7ip7Qwx$b:)H<6(/*$vy922/dZ.)7q
$%-'6=#(:! -Ph;)*/ :$,*)(9A2K=+i(/v(=XjL$%IitX/ Q3Y23,*)(9A27!r+3225pX]wIR$(p7QwWej:Se<6(/f0
o,*)[9A25!-ip:25pXYwfR$(x7QwCeUJ;><6([12,,*)[9A20!vHW'25pX]w7.x*$E<6(/H0
o#2$ *X*$=+Ue*::5x# o*$2Y75)$/ T$#Z;:)XhTtJU(9$>h##(:/B:0[
a/ob>2Y7jX(//H)Jrw%%0ax7Qw(e1:p>5w%%0av7Qw(9>7j7QwCej(=XjJY
8-D D#(:!1-P$RlP9[\GsSV;9A2p!3L3$ 2t%[+:)X:ZxJ3>U1+$0s$[9A2p[
aYT-X*$33Wr/x*$]Jx('Hvs3D!(C[G']#!'9A25!vu)[25p=3wr-x*$=+4#(V(=x3ly
84a$_#lH/JjT3Jp39-uG%#(:7 S0I3+$%-Ug%/ q3y26+z$ 9A2K<-ihu/$v.9k'XdZ.)7w'/X*$X+P((/sl
T[D<9A2KX+uE$ VOy[D<c[g']#$39a2P7%$zBA1pTd$zBdZ.)7w''x*$=#f(9A2S!j+Ei25pXUq
$- 2Y73)*/%:$G<2'9A2p!juC'*e$,w) 5X*$3Jx([ )0<#M.*7;$_#+H/ jL
Tdmz9A2==<6(/f2vu0w-9126s%9:)X:ZI5W2%8/3s3w-9h-00.+(sz
$6yCFfk%2Y7jX([/26yCFfk32Y7.+h[%J$Y'vRxX*$x+jm9$PGo#(:UB:0jRQ
$%2lJ1#(:/B:P=#t<K3(77Qw)ev)00A+((xI/S0)c9A2p!j+([ s(7:T;m4'$_#+H/ :;h8
_2%8'/7Qw(e1:p=#toW7UV7QwMeUJ;7*;!X0L$_#pH/ h$8Z*:)XvL
T';<Dx*$=uUH$u2:yzmUw[2Y73ih//e$8DMuW[2Y7;+(96u,\C :)X)Px8
_2yC!$_#pH/V:57*5I-x*$x#M;9A277[=2F=:$_#39!1:([
a$F];;77QwM93(j1jw-9 sz<rw'N8 37QwCehH*0.+(sx/a4D=:)XhZ>yj981:;[
a/ZWPl$_#+HUX(a4D=:)X:Z$u4e9=7A-[/%9A2p!jP('x/HO0$%KX*$x++($%+L
TG#z-=a[7Qw3e J)7\#z-=a[7QwCeU:)7[#z-8Z<7Qw(e1HS<Uw[wG/h#9w-91-pXvPW6
:AHO0#+\X*$x++([X(HO0#+\X*$=+p:=8!X4\Y:)Xj$1cd%9A2p!jP(2j0
o,[#ZKX*$33x>'25PxRW[wGa$_#+H/1jPb#/!N>2y7Jx(/1j5j;W'WgUV7qW(E1h7[
af!n0 $_#+H/1j77G#zBp2Y7jX3ivs$#cd%9A277*V7*p!t7Qw(efTl
T*#zkp2Y7-Xp9['W)#(:[Z
$[ozV:)X1[OZvq=Dfk7GDOmx*$]gd<MDz.)7W%N3D$_#p9!1h77GDORx*$]gd<rDz.)7Q
$KgU37QwxkGu36\s77xA3S#(:[25PxuW%R22Y7jX)9>\$_#+y
8>]G.*$<9A2S!]w6J3a<7Qw*[x;[Y<W-91-)7KV!=x*$E+U(UZ
$8m:[:)XjZjyp:\.\ S9W-9\:zX5,Y
8,'77Qwx!1-5B;HC8p]j=/ Q3Y2,Gsp:)x5p!j+C9,'7,#(:!%-5=vH9!1:;7w2c9a2=x++>[H+)[
a! *X*$].pH/%$Vrs)q=Dfk7%! *X*$X++p/h+S[
a!'[X*$x#![[X*$=+U#[25P=yWf03H$_#+HI%(=x3,:0>h$_#hHS/jT3Jp(6
:l\S3W-9%-p<5J9!1H77*5 9A20!;u:572Y7.i3[1el
T: 0wMDv7Qw397ZW4KVO9A277\V!5x*$j+I981S77\V!-x*$$+U981j0[
a 0W>2Y75+(*j2t\#(:: :PxJ+(9=\$_#p:*_2Y7jX#/U0
oG:W-912j#t#'9A27!rw =.7x7QwMev28%\V!9A27[
a8<bX*$=+p3:25Px5W,bcU$_#Jh'%Jt3jPM9#u,ozw-9/-S0.+3[xzF9#(:[BjP7C8 F0\,yQw(e1:)[
a#,x;U:09(:/B:PbVW[\02Y7]X39E<x+zw-9 26-zw-91-9i8
_%.02Y77/,c[g']#9,bX*$x+3)9$//uzw-91-;e#/,bcU$_#r%.04.#/OX6
:OF9XK:)X:Z=#t[bc!/7Qw(efe$SLKin02Y77/,BC!.#/ox9M</u2k:)X:ZhyQ
$]3U,ODW-91-;e#/,bc!V7Qwxk#u,o/ Q3Y2>*zmz%x*$x+Ie97ix7Qw(e1:7J8
_ k#2Y7jX(/1V;B#22-04$_#+H/1j$%g8<dX*$x++(/ ts7ST[BC!$_#+H/1S5[
a2%.04a7Qw(e1:p>Y3:377/7Qw(ev0
oYk/Z9A27!5)*/1T$Yk/!9A270.+($x ,*#(:/Z
->md)f9$26\tk:r2pT,#(:I/0
o,k#+9A2(0.+(sxl>14W-9U-p=<6(/j2,\C :)XhZb<6(/*2,\[o:)XYZx3)*2Z
$<0'k!m[2Y7vXC9378R\# 9A277*$;5MadgQw39MDx\t;:)X:L
TG$2o. $_#U:WgA>MDW-9 2ho090%x*$=#d9MmdV7Qw(6
: HMkvo9A277';<o. $_#+:Y3dV2kvo)X:$82$ *mdV_#+y
8$(:\t;:)Xh$1g 4bmdV_#+:x6z_9kvo)X:L
TS 0ox*$bRW mE($_#rcE +T3J+#8P'w)/tq3y2JM4t:)x17!54)*\:peA; mEg664R:x.f>7QwCe Tt3j+#6
:(69'v79A2S!]wIw['$_#r*[B:*x3)*/1voYX#+xDI.)7Wfw['$_#r*(Bj9$3)*/ :==<6eA07a\[S2CeWs]#=f9a2==++P*\:7<8
_IRx*$x#=F=X*$x+,(IH2,,\w-9 23u#(:/Z
$,u#(:! -0<<6([J23u\w-91-;eYwID[2Y73wfDI2Y7jq
$dcl$_#+:riA$_#+:DIa$_#+:RCa$_#+Y
8C4[7Qw(9I43s#(:/X4,,gW-912',#(:!u(=xJly
8E4$_#+:%iA$_#r3EV(=xJl$%Pl[6*S77X ,s#(:!/(=e#o256'$_#PY
87D'8<[:)X17!V39!1:;tD203DI.)7Wor>7a7qW3E (=xJl:%7D'_jX>(/(=e8
_6X;:$_#r*/Bj*<R_o\7>P6*S77X]77Qw(e%e)J#\c9A2=X++3:1J$G;W-9Y5)!v3M': MJ/TQ3Y0
oG;f:)X:Z>]l3UX4P7Qw(9pPjX#(:71-7bu_o%-'P6*S77X <%3W-91-pe;4M:z
$v+Su:)X1P7a;o\7j../OX9pPjXxw-9Y:zXjP3:jeOydy /Cg664R:%-'7u#(:[1HSJj+:%-'5u#(:71$vy92CDdi.)7q
$%0MX7Qw(e%TSJ5wUw[P$_#+H'Ft9<#Y0j_l$_#6PEJ)7=<6(/F2v+ST(9A2S!v,)*\:p$8
_O\7i77Qw(ehs$,*)(9A2KJ+JM$25pX]_OR$(p6*s77xl3.<+:)XtZ<Jl#*\:PE#=2*32Y73XW$*st3j+E6
:fF7Qw#*\:p># Z57($_#p981jP7\;9]x*$I<_([*289dw-9 (OX-+Y
8$>h##(:/XAV9gW-912[yz/[9A2p7G;<kp2Y7UXCsh(=Xj4Y
8>7j7Qw(9-D D#(:!1-PE;4w9[\GsSV;9A2p!-4E92'GX#(:/B:0>Rhy
82'G-#(:!1-P=;jeIXp -#(:! 2\X#(:71-Pxul)$\ \x/tq3y2\1#(:2B:7<<6([126Rj(x/\ 6Rjs2cE1l
T$F:)XjZ>5+P*\:5x#tR-X*$j+j9!1j77$/:)XtZ$<6([%2<9[2:)X17=;43/\ <9[2q]Dfk[
at6b='$_#IcIBS97[+:)XhZ<-hm9=!/7Qwx/by9Xj4$%=!/6*s77x;77qW(9I;A9QR(8p;A9/TQ3Y0
o1-W-9 2xX#(::Bt50.+($X/77QwW*\:p>#\9x=2Y7jX('1H7[
a;inX*$3;x((VjT3J+e9p4x7Qw3efV90.+((xI[,kW-91-5Xj,:]P7X,gp:)XtZER)*/1vL
T*;!-Ia57Qw3*\:p<#toW3l[-#(:!1-Ph5jP9p3WRSw-91-5<UP:]-;a7Qw3*\:7X8
_O*I'G7Qw3*\:5X#=o*i'g7Qw(e1:5<-J:]0AX03W-9j-)J5)$/1V$.Z/[*%2Y73XEi25pXrq
$j$3wrsW-91-pXr+(sxIV4sK:)X:Zb-,#9$ h%z;:)XhZxVW2%8'/,#(:[Z
$:9hw-9YVOy'kAc$g']#5OBC2y77,e8J:N9cdu5DI.)7W;%04>4\W-9V+$8dmUw[2y7;+(6
:3/Uk#+9A2SXjw2yC!$_#IHUFS97*5I-x*$x#M;9A27[
a$F];;P7QwCehJ9=<6(/j2G,**'[x*$x++m$ 2x0S$(9A297[D!%I2Y73Xp2h(=XjLY
83!hy%w-9 -;Xv)$/1e$S2#orX*$x++((ut07<D!%I2Y7jXE(f)$1cd[5>A$_#+H/ hP=8
_[wG/GsGw-91-pX]i)i/2[42F'k>2Y7jXE2v+$#cd[5>A$_#UH[Fv$1cd[W[p$_#+H/1t7[
af!n378+#(:/B:Pb;I:K8!X4\Y:)X:ZxJpeU%2t42F!=-2Y73X)[*2842F!=-2Y7-XE:U0
o1cd%9A2p!j+)[v2x42/:)X:ZxJp>UV2[42/:)X:ZxJ+#2V2G42kO9A2p!j+p(/el
T0#zBp2Y7jX(/1H0$3w%wGuv7Qw(e1)9XUw+wGa$_#+H$Fj07*V7*p!t7Qw(efH([
at!n> $_#U:=7d'7Qw3ej0
oS2K09A2Ks2k0c$g']#/Z%.2Y77/zB.g664R:Kg/w7Qw(9>!v,#(:7>!/,/tq3y0
oS2KF9A2Ks2kfc$g']#/FKX*$=<6(/*2[,<w-91-97G[:)X:L
TG\']$;/7Qw>e%e$+:f%\X*$33W'kp($_#+H'FS$\t#+9a27=+ly
8[D D#(:'BS)j#Y0j_A<7Qw*/b:)J#yt->PY33q
$47h$_#r*/Bj9x3_o47h../OX9$]J=#(:71-pXj4>s: 6gSPQ]dFK7w23rX*$3;Xp[/(=Xj,:47J$_#6(e1J)XUq
$07($_#r*[Bh9ha;Rx2G664r:0=H$_#6MefV50.+3[xmx=#(:! -0<5)*/ e$,$f39A2==+49!1Jp[
a!%[X*$33x('25P=JW2y72Y77+h$%TSFS)U]23==]Hhi 1$1Sw-9/hPxJW2572y776c/1:oY*$ C$G']8
_t=.7>mdw-9 2j#t#Ump2Y73w+m8;$_#UHI2Ss7\V!-x*$=<Uw6
:zw4gW-9/(7X#)U9a2005W'jX*$=#)t9a27!3Uy
8,\$_#+:x[dH1#(:[B+$%\v!-X*$j+4:=7zw4#(:[Z
$f9zw-9 -(0.+($x</uzw-9u-70.+3:XZf9#(:[b:07C8 F0\,yQw(e1:Se34Y
8#u,ozw-9V-P0.pm6
:7F%HK;*-*$x++('V2x+zw-9h-*748[\02y73W2-02y7JxwI/tL
TG8<9A2Ksls2cE1$\lk:)x:zJ;+p9$//UZW-91-(<RW%.04/7Qwxk#u,6*s77z
$>*zm<9A2p!jiC2j+$.0kIN02y7JxwIV2[*zmzBx*$]g8<dgG664r:o#u,ozw-91-(xVI36
:IX9Xdo9A2p!U4p9></u2;:)X1[*ZMZC$G']#9,BC!v7qW(E*:)h3W ]32Y7jX(/ T9H]q
$x><$_#+H/1:;<]W ]3u,7Qw(e1:)B;3C97AF9XW-91-PxJhmIV)$%*F<DG2y7Jx(/1S)j5Q
$x></U2W-91-pXjHp( +$)s#<9A27!-q
$%mAa7Qw3ej(=XjJ:%mAH7Qw3*\:pi#;i.X*$x8
XUmp(37\=69[oW98
_f*-(37Qwp:z
$3\C :)XtT3J+e9IoG)#(:UB:70.+(2X4>4\W-9 -50.+($x4>14W-9j-p=<6)6
:pT8Z#0=X*$h+3:-8z\#c2:)Xh$.[5'O>>m_#p:O./>MDW-910
oS[tuMP2Y7-w!N>oWy#(:[X7a-kvo9A2772)0o. $_#+y
8p7W\t;:)Xh$8DKuMP2Y7jw;-. E\t;-912:o[29o. Y7jq
$]23>MDW-9 2Gs\%<o. Y7jw y[N/\t;-910
o%\vu9A25<#20322Y77Ph(v(=Xj,$%7D'6\=6cE1$%to29a2k=+4($25Px]_ox.f.#%Yq3y2JM49:)xJzB<6(/f0
o0*K;Me2Y7;X#9C78%#(:7\:Zh]49!H$VUc  C[l<64r:R8Zj7qWXIBj0h3)*/1E=Y%#+xDz3+/OX9il$_#+Y
8CL$_#pH(*+P0.p)9il87qW39cl87qW39i4$_#+Y
8C4$_#+:rcz$_#p:dcz$_#p:rcl$_#+y
8C437Qw(9IL[7Qw(9CL[7Qw(9I4[7Qw(6
:4,S#(:/Xl,,gW-912,u%/:)X:L
Td=%9A2K=++(/v(=>.49!fwSFz#zo=g8,9s77x ,S#((6
:f37Qw*u25pXYw7Dx*$x#O256'$_#py
87D'8<[:)X17!5hc*\:PEa; MeG8,9S77X 3sCD:)xHzX<6(/h0
o+s*(9A2KX+PC2%$v+S*(c[L<64R:4 2y7Jxc[HE$G-W-9\:zXj3>sv2MJ#(:71$VG;S+r-G']8
_.u32Y7jwI/x*$x#;6x12Y77Ph[ VOydy /dZ3+/ox9PpJ=#(:/b)0e8
_O\7J$_#r*/B:5EJ4$%PpJb/ F\Dfk7DY /c2y776(E1:Px34$%PpJxXS+r-G']#;6x 4$_#lwUJ:P7dy 'C2Y77+$%pPjBxs+R-g']8
_OB4/$_#+H/JSsb#9!=-2y73xcU%2<M:[F9a27!-3P:25Px]Wo\7IP7qWcE Y50.+(2Z
$v+ST39A25!r4:r$(P7Qwxib)SH<6([ $v,*)(c[L<64R:RIitX#(:2bsSi<6(/f23.<F:)X:L
T9FU9A2=J#O,9A2;0.+(sxza1s):)XhZj<_('128y<T:)X)Zhu)$/ tL
T\kO9A270A+C/xID4\W-91-p>UHW9> /s#(:/B:PxRp:KPU[-#(:/Z
$[yz/O9A2p!j+($hyS7G# 9A20!UH3*\:p<#Y0j_2Y7.+h/vy*=# T5>'w8#(:[B+L
T% t5>'W8Qw(e12t%[+:)X:ZxJ+w'1t$0s$[9A2=X++(/%e(<vwf*7;x7Qw3e/s00.+(2z
$<D0w-9\H$rJW-9Y:zX;i#[: \X/ f\dFK7$$:)xJz<3u9!1Hp7$F:)XhZ>]I9!1h*[
a!%9A27!3P)*\:7X#)R9A27!5w6B='$_#r3'%YPxa;6b='.#%Yq3y26+z$ 9A2KXA;2\0;j6\=6cE1l
T%y<572Y7733$b+Oy%y<57g8,9s77z
$GX#(:IX;a9#(:7 -)j;_o5gU.#%Yq3y2G=#(:/B2gb#(:/bySirq
$-12Y7jw[[x*$x#\9x=2Y7.+h//2vu2w-910
oYXf:)X+Z$-U9!1:;7*/fox*$=+pP$H26yCFfk 2Y7UX>*\:p>#toW3l[b#(:/B:P>5Q
$]P7X,gf:)X:Zj]WOy.mj7Qw(e1s(7*y'Nx*$=#;9r7;$_#+H/1t)E-4y
8$u[-<P:)XSZbV)$/1v$.Z/[*%2Y73)*/1+$d*50072Y7jX3ujT$.D# bX*$x++(S%t0[
atoW7UV7QwCejH77*;!X0L$_#pH/1h$8Z*:)X1*tD5<fDz3+/OX96 /u#(:7%v(!u_oYPU,6\=6Ce1L
T';<DM787Qwx(%-)Td5OBCoh#/ f\dFK7*5inX*$B+,C9$3,-#(:/bH7B;wIyx*$=++y
8=L6/[+:)X)T3J+w9=L6/[P:)X)$-<2'/X*$=VxPIX;a4D=:)XjZI539!1:*[
afZWPl$_#pH$FtTtJ+#9>!hy%w-91-S7<D!%I2Y7jX)$vV$1cd[5>A$_#+H/ :5[
af!n3;[S#(:/B:PI-4:K8!X1g/:)XhZ=-I:=8!X1g/:)XjZjJI:58!X4\Y:)X:Zx3I3:Z
$x42F!=-2Y7jX(//H(7G#z-8Z<7Qw(e1:77<#z-8Z<7Qw3e 2842F!=-2Y7-q
$58![7Qw(e1Hp$]wf58![7Qw*ub)9$<6(/v2x42/:)X:ZxJp)U*+$sCD%9a2P!J+([Z
$G42kO9A2p!j+#i1)$-cd<%X*$x++([%:;7G#zBp2Y7jX3ivs$#cd%9A27[
at032 a0#(:[B:s7*#zkp2Y7-Xp9['W)#(:[Z
$[ozV:)X15!JUP*\:7xa;%nPd.#%Yq3y2[odV:)X15!JUP*\hPtD/Z%.G8,9S77XaA-tw-912[od=:)X17!3le*\:7xa;%nPl.#%Yq3y0
oS2KF9A2K=+PEs25p=j_OkG 36\=6cE1l
TG=%9A270.+($xA30#(:/BY$S:W-910
oSw$2]=U$_#pH(XAm1*t'%X*$=+,:\_/[+#(:! 2Gsd):)X:Zh8
_Um8Z$_#,H'1)$#T[T9A25!5P)9-D DGy:)X5P!JjP6
:]J=#(:!1-sj;4#9$]j=#(:7\:ZxJ+38PIm%3S+r-G']#\ [I2y7.pHIJ(=xJ,:47J$_#6(e1s*HYq
$r,'57Qw(e1:peUH:07($_#r*[B+5Ia;Rx2G8,9S77XmG=#(:[b)00.+((xmx=#(:!h-7B3P9!1H;[
a!%[X*$h+I3*\:7x#t;xX*$3;hHS*E$1sW-9YV0=U,*u/VzJr<lX2o60'.$%='.#%yQ3Y0
od\v!O. $_#p:x[dH\T;:)Xh$#T#'9A270A+>'xZW40w-9 :P0]Q
$=.7[7Qwpi1(97<9:)xs7Xj+(/12gd#(:[x( 7qW(EF:P[
a\T9A2p7S 0w=2Y73Xp97ZW40w-9U-07\2+m82Y73q
$.0U$_#hH:25PxuW,BCu$_#pHI25P=;W,BC!/7Qw#ef(=X3u:=#u$_#Ph[jJ0[
at[bX*$x+hw9></7Qwx/b:p=;4$%><.#%yQ3Y2>*zw-91-S>#t[bcU$_#+H(F0
oSLKibX*$]Jxw*\:7xa;%.04.#%Yq3y2>*zm<9A2p!3w2-04A9#(:/BE;7G8<DGu$_#rcEV(=x3+$%></U2S+r-G']8
_U.04A9#(:/BS*7ST[9A2p!j+3:x'[*#(:/B:Px]pm97ix9xw-91-pXjJ)/v0
o%g8<dX*$x++([X'6-ZMZ9A2p!j+32x'[*ZMZ9A2p!j+($xfJ4ZW-91-0[
a;uKg2Y73X)*\:pi#;uK82Y73)*/1T$YX8:)X:L
T';Io8Z$_3L(96u,\C -[h:l
Tz$;*_2Y73XC*\:p$#K[Y2\$_#pH'25Px5WIR. $_#+:4-'Dx#(:/Z
$3g92A/x*$x#M.\7>P7Qw(9$]<%h+:)X:$,%vo\7>$_#+y
8CLWy92A9A2p7z2.'x*$x#=0%,j$_#p:r. T%[+:)XhL
TW!(9A2=J+3p*\V$,W!(9a2P!J39!J2,g$+:)X:$.w!(9A2p[
a=FMP]\x#(:[X43MD\R/X*$=#\6b='$_#+H2 +$9s) 512Y7jq
$x,MP7Qw(evyl
!KVO*I26,9W2o.ul
T%)6*I2y<VQ
$rm787QwW*\:p>#=u5e2Y7;X([25pX5wIo8Z$_#pH'25PxuWIo=F$_#hH/ (=$8
_6*6uhm\w-9/-570#+0[7j7Qw39$;:1K/A4A277KV[o. $_#+y
8>;6\t;:)Xj$42/uMP2Y73w!N3oWy#(:[X!TMkvo9A2p[
a;!MmdV7Qw396 /\t;:)X:$80vo<mdV_#+:Yg;J0kvo)X:L
T*);o. $_#p:5>z_9kvo)X:$%' 4bmdV_#+y
87ZW\#(:'V2jm4):)X15!349!1:;tD203DI3+/OX97d'.#(:7 -9<5)*/1eOySV7c$L<64R:x.f>7QwCe/(=Xj,Y
82i/8to:)X)ZE#M!=72Y776CevJ00.+(s:Jz<<6EqU[/429'c$L<64R:R8Zj7qr:! -5<u49!1:*3D=!=7G6,9S77Z
$3,#(:[B+Pj<6([J0
oU%W-9/-70.+32xl3##(:[X43##(:[Xl,7Qw(6
:4,7Qw(9I487Qw39C487Qw39I437Qw(6
:4,,#(:/Xl3S#(:/X43S#(:/Xl,S#(:/Z
$,uGw-9123u%/:)X:$UX=%9A2p74=:)X5s0.+(SZ
$'u#(:/X 3S#(:7 -0$y)*/1v=x+49!FWsfZ#ZO=G6,9S77X ,s#(:/25*74T'y72Y73q
$x.f:0:W-9Y+t3j+#8p'W)/Tf\dFK7D=%Wg2y73x3*\:P>#; Me*P!V,>*\EL
T92A/x*$].+H[V+5ha;6x;:..%Yq3y2M=#(:/Bjs=uW.'x*$].+H/ +oYwUq]ip.)7W.ux*$]JxP8P]s6*=6Ce1L
TW3[9A2p7x+:)X:$Y92(9A2KX+P#/f+Oydy /di3+/ox9pPj=#(:/Bjsb]Q
$%-'57Qwx!1-pX34M2j$vy92Cc$L<64R:%-'PU#(:71-Px-+PU $VY92(dDI3+/OX9PpJ=XW-9uh0>5+(9PpJbXW-9y5P!J3c8P <%-Mq]ip.)7Q
$%0MX7Qw3eUJpe#=ob4/$_#6(E1)5I#9!=-2Y7.u9!1H579VtJI2Y7.4h/j+)0.+((z
$v+ST(9A25!ri)i25pX5wO\7i77Qw(9IitX#(:7%-)=y49!1:(tD=2*1G6,9S77Xl3.<+:)XvZx343*\:PE8
_f]2/$_#49!1:;7%=2*32Y77Ph'UH;0.+(s: 3,*)[c$L<64R:3#2y7])*/1v$#2$ *x*$=<_('10
o#D)29A2S!5)$/ y$#Z;:)XhTtJU(9$>h##(:/XAV9gW-91-pXjLE'1Tl
TG;<k32Y7jX(/1J*7G;<kp2Y7jX(/1)07G# 9A2p!j+('*T079VtJx*$3Jx3'VvL
T\['k7D:7Qw(ejJ)HUw9X=:$_#+H/F+)E;W9X=/$_#6(E1h5EVU:\_/$_#639$mp_7+*%$mp6*=6cE1l
T$+:)X1P!Jpc[Vj=Y$+q]ip.)7Wr5x*$<+h>:V(=x3+:032Y73XCsjJt3jPE94a$_#jH(1+T3Jp36
:(\7Qw39-uG%#(:7 Y)E5+*%-Ug%/tF\Dfk7[+:)Xh$12K:)X17!]+>8P;a9/tF\Dfk[
a$39A2p7[u:)X:Z<5UP93:$_#+:- 2Y73XCiU(=XjLY
8,(j1#(:!1-Pj]pc:X ,O#(:!%(=xJ,:%c/$_#+:]>l>7Qw(evHl
T*;!-Ia77Qw>e1s5<<6(/h26yCFfk%2Y7jX([*)S=#toW3l[-#(:!1-07d50072Y7jX(/1s5B3q
$]-;a7Qwpe1+$Y<= 5X*$x++3U1h$.Z/[* 2Y7vXM: +tTj+E9$u[-<u:)X)T3J+P6
:\68T! 9A2p!j+>(vV$.D# bX*$x+lc[FS$.D# bP2Y73X>[jJ$.D# bi2Y73X>[*0
o8Z*:)Xv$8DKi9A2*J+P)96 /uK#+9A2SX#5odm787Qw3s10
o8ZMuW[2Y73L(9$3,o#(:[Bt*7*5I-x*$x#M;9A27[
a$F];;P7QwMe*+t3j+W9=L6/[P:)XhZ>RW[*7;p7Qw3sb+$12#orX*$<+jP*\:7=8
_[N8 37Qwpej)50A+(sxAa4D=:)X:ZxJ3w92!hy%w-9 2G42F'k>2Y7jX([1+l
T0#z-=a[7Qw(e1:0i#/!n3;[S#(:/B+s7\#z-=a[7Qw>e/2G42F!=-2Y7jX(/jT)[
af!n378+#(:/B:Px5U>9>7A-C 69A2p!j+3sUH$0cd[W[p$_#pH2%E77\#z-8Z<7QwMe J)$8
_'wGa$_#+H/1Y5>#='WgA$_#6cEVjT3J+P937As#(:/B:PxuW%wGa$_#+H/1:;jyly
8=7A9dw-91-pXrLp2xlg42Ko9A2=B+Lp*\:p<#f!n0 $_#+H/1:5<-W%wGuv7Qw(e1+5HYq
$=8![7Qw(e*y$.TO9%g($_#pH/Fv$.cd%%X*$b#  Me2Y73X3uz
$[ozV:)X17!y4c*\:7xa;%nPd..%Yq3y2[odV:)X17!y4c*\:7xa;%nPd..%Yq3y0
oS2f09A2p7GDORx*$]3x3SH(=x3+$%>!V,/tF\Dfk[
a/Zbi2Y77Ph[hVt3jP(8paAy%s2R-g']#/FKX*$=<6(/*0
oS%):)X:Z$#/T9A2p[
a/.5$Ig9#(:[B+s7g\']$;V7qW3EV)$1g;99A2p!;4:O.787Qw3/bJl
T\VtJx*$b+Iw9-d dgY:)x5p!jJ:\_/[+Q636
:]J=#(:!1-s<Vhm9,'7,#(:!V-0<y)*/1E$GsU:)X5P!JUm:F2\%<w-9Y55!j,C2: \%<s2R-g']8
_r5 2Y7rX#i25p=-wr- 2Y7.3h: y(0.+3sxl\-3W-9\st3ju(9Cmx=#(:/25PbJQ
$0>h$_#6mEHST3Jp(9$]j=#(:7U(=HA;247H..%yQ3Y268S(x[b)SJ;< *Mit8.P(2by(]8
_'Xx*$]3+(:JtoY[2q]ip.)7Q
$j[dH\T;:)Xh$%\v!O. $_#p:=.7g7Qw3ev(OXvu:=.7X7Qwm*%tL
T\V!kx*$=J)#92O$_#i3/1:pXjw'jX*$=#)t9a27!3Iy
8,\$_#+:x[dH1#(:[B+$%\v!-X*$j+4:=7zw4#(:[Z
$f9zw-9%-5Jvi9!1:(7lkIBx*$E+h9! S$*zmzBx*$=+iM/j(=X3u:=#U$_#pH[10
o4L2ab_4V_#+H/1j*I##,X;u:09(:/b:p=U3:--u$_#Lh:U2'*0Y<9a27[
at[bX*$x+jw'Jt$slk:)x1p!j+3[v$vsls2R-g']#9,Bx*$X+3MivJ$.0KibX*$x+jwUZ
$[*zm<9A2K=<6([1$vslkIc$L<64R:O#U,9#(:/B:9<;W2-04A9#(:/BE($y3:k#u,ozw-9ySZx<6([1$VSLKinDI3+/OX6
:OF9Xd<9A2p!UPE'U2J.0W-91-Px3lw/J2jslw-91-pXj,#:vV$%*F<Dx*$X++(/ )0H3q
$x></U#(:/B:Px3lmS/2j.0kINx*$x++(/F))h;W k#u,o#(:/B:Px5h#IXFj4zw-9%-Px8
_Oo>!$_#pH225PxuWOo>7$_#p9!1:(7dm,9A2p[
a5odm787qpe/X3/Uk#+) vP[
+90%2l$#k=69[oW98
_f*-(37Qwp:z
$3\C :)XET3J+e9IoG)#(:UB:P=<6(/V2,\C :)XhZ<<6(/*2,\[o:)XhZx3)*IZ
$<0'k!m[2Y7vXM9378r\# 9a277*$;5mADGqW(9mdX\T;:)xHl
TG$2o. $_#U:WgA>MDW-9 2ho090%x*$=#d9MmdV7Qw(6
: HMkvo9A277';<o. $_#+:Y3dV2kvo)X:$82$ *mdV_#+y
8$(:\t;:)Xh$1g 4bmdV_#+:x6z_9kvo)X:L
TS 0ox*$bRW mE($_#rcEJ(=xJ,$%7d'6\9F\Dfk[
a203$2Y77uh[h+t3j+#8p'W)/ UR-g']#203M2y7-x)*\:PE8
_9]03W)#(:UBE$Uc  9A2K3v)*/1eOyx#+XdZ>,9s77z
$34\2:)X100.+((: 34\2q=ml<64r:RI2y7JQ
$di2Y7jwfR[2Y73wIR[2Y73wfDx*$x8
_IDx*$x#=i=X*$=#Mi=X*$=#=irX*$x8
_IDI2Y7jwfR>2Y7jwIR>2Y7jwfD>2Y7jq
$dcA$_#+:rcl[7Qw(9C43s#(:/X 3S#(:71-(0.+(S: V,gS+Oip.)7Q
$%cA$_#6P*\:PE#OF9A2=J<6(/h2'u#(:/Xf61'2:)XhL
TSV7y2\$_#r)EHET3J+#8P'w)/ ur-G']#;FK8!$_#4H/25Px]Q
$\7>P7Qwx/b:*B5,$%-'dX/ UR-g']#\39a2P!-p>(X]57qW*/B:s>;,:4U2y7763EV$VG;S+Oip.)7Q
$4u/$_#+:d12Y7jwO\7:$_#rm[BjoYDY /Dz>,9S77X <%3w-9 -7b3pm6
: <%-W-9Y:z=viC8p <%-s+oIP.)7wo\7:,7qWX/B:oYDY /cG8\%Yq3y2v+SPI9A2)<34C210
oY92cdX*$]J_o%-'5U/ ur-G']8
_OB4/$_#+H$%vs7k#+\X*$X+J)'xpwd:=:)X:$Y922/X*$]]xw$%(=$a;o\7IP6\9F\Dfk[
a=uW[p$_#+H/uSL
Tdy ] 2Y77u>e )Oydy ] g8\%yQ3Y23.<+:)x1(!vH3*\:p>A;f]2:.#K=6cE1l
T%=2*12Y77ihi%Tt3j+#8pL3.<+Q=ML<64R:r$(X7Qwx! -0>r)*/1VOy%T9-dZ>,9s77z
$'*#(:S25PxyW+N='t7QwC*::5X# o*$2Y73XCi :S0A+3sxz/Y#(:[2$PbJQ
$KPU[7Qw(e1:pBU3C(%23sdk%9A2p!j+([1J(X3w%%0ax7Qw*/b:pXY3>u1s$SDK%%X*$3Jx(/1hs=y+e6
:l[YZ/o9A2p!j+(ujT9Xrw%w72Y7;X((h)t3j+)9-D D#(:/B:Px5W+J=ajm'w-91-9X5q
$r[\gSsv;)X:ZxV+#'X(J1JW-91-7>-P#'x(J10W-9\:zX]4E$xp -#(:! 0
orJW-9Ys;J+P$%4:.#K=6cE1$,$+:)x:$r[W-9 -($;)*/1e$,$$:)X:L
T$F:)XjZbVp9!1h;7%![9A2p7$/:)X:ZxJp((V23RGw-910
o0$W-9 2<9[2:)X1(<Vl(8Pp/1sS+Oip.)7W'/X*$=++:5gU$_#r3E voY[d<C[O3+/OX6
:l<9[2:)X19=uW$9Pl<9[2q=ml<64r:r$A3\#(:/Bh57*Y<57*kxa;2\0;J6\9F\Dfk[
a$39A2p!Ui(ux;57qW(E%S)$#f(9A2p70P:)X:L
TW) 5x*$].+H/uh0tD\9x=G8\%Yq3y2vu2w-912vu0w-9126s%9:)X+Z=3,y
8$ h-%/39A20!r,#'f(=Xj4:]P7X,gU:)X:Zx3pP[/)$.D#[r>/$_#6(EHE;>]l:%6d\%#(:/Bt;E;,#6
:I<12W-9U-(i;,:%2lJ1#(:/B:P=#t<K3(77QwEehV*=U)$/1e$.Z/[*%2Y7;XW:v)t3j+W6
:\68T! 9A2p7*;!X02Y7jw2%8'/y#(:/B)9ju+e9$ h%z=:)Xj7$5Uc/10
o8Z*:)X1*tD5<fDz>,9S77X3V9XW-9YHSJ+J$%6 /u/ UR-g']#5OBCoh##(:[ JzB3w;%cOH##(:[h:l
T'kIo8Z$_#pe/XI:U2W-9 -*i]w2Yc/$_#+h/jV9>#m;9a27[
a$F];;P7QwM*\:7=#$F];;77Qw(93(j1jw-9U-*7[D!%I2Y7-X>u*+;0.+(sz
$xoC;f9A27!]4((v(OXj,:Kg7V,#(:/B+$02#orX*$x+UP2*E*7[#z-=a[7Qw(e1H7=8
_[wG/GsGw-91-pX3,:K8!X1g/:)X:Zxu3e9[7A-[/%9A207[#z-8Z<7Qw(e1H;=;u36
:/HO0#+\X*$x++('1+(E;W%wG/h#9w-91-pX3i#sh2t42F!=-2Y7jX(/%:7B]3:=8!X4\Y:)XhL
T[#zkx*$x++3/FSs<#f!n>2Y7jX(/ )5H;w%wGa$_#+H/V+(jyp:58!/Y#(:/B:PE54c6
:/HOZ;:)XEZ><6(/*2[42kO9A2p!j+(iv2842/:)XhZx-I)2XIw)<;Z*X*$=8
_2wGav7Qw39['W)#(:[Z
$[ozV:)X17!-I9!1hPtD/Z%.G8\%Yq3y2[ODv:)x17!-i9!1HpTd/z%.g8\%yQ3Y0
oS2f09A2p7GDORx*$]y)*/ hoYgdorDz>,9S77Z
$[oz=:)X1*0.+3[: [OD=q=ml<64r:kIa$_#P9!1:([
a/F*X*$x+h:K_2Y73X(225p=jq
$K,;6.[K:)X:Z$#/.5$IgY#(:/BY$+:f%\X*$33W'kp($_#py
8MDh##(:[V28m:[:)XhZ$#Y0j_A<7Qw(6
:]J=#(:7\:ZjR,w8P]J=/ ur-G']#M.x 2Y7.+h/12M%3=:)X:Zx<6(/F2m%-W-9\:Zx54w(HYL
T$299A2=B+33ixl\%<W-91-p>#!'[X*$33x(225PE#![[X*$j+3eI257E8
_rk 2Y7jw'Xx*$]Vh(2%57b3xc[9'T\*);8P;J6\9F\Dfk7*5 9a2kx+3#UF[J0kt9Y:h0!uhX9$;J_3+(6
:\8Mc90%X*$=#2+M8OwY#(:[Xzw4[W-9 -S=j)$:%28mCF:)X)Z=-4(*:j)[
a 0W>2Y73X#s1(OXUw9ox*$h3+(/1:P7[[:)Xh$0:W-91-;[
a\T9A2p7S 0w=2Y73Xp97ZW40w-9U-07\2+m82Y73q
$.0U$_#pHIJ)*><6(/*2f9xk:)XhZxup)225P=;W,BC!/7QwEevs;B<6([U28*ZW-9 -P<8
_!.7>/Dx;-91-77C8 F03t+Qw(e 2x+zw-9 :$)Lf6bX*$=8
_+.p2Y73X(ixIX9#(:/BY;>],:K#U$_#r(E1:7ja;%.Dz>,9S77XOF9#(:/B)5juQ
$]3U,9#(:/Bv07G8<D02Y77Ph/25p=j_Ok#u,6\9f\dFK7k8<d02y7Jx39$//U2K:)x:z$-q
$K#U,OZW-9Y)zX<6([1$vslkINdZ>,9s77xof9xD<9a2P!yW%.P2y77+H/1hstD/,C[O3+/OX6
:AF9X;:)X170.+3/: [*ZMq=ml<64ry
8></u2;:)X1s!J)*/ :oYg8<dgG8\%Yq3y2j.0w-91-pX34Y
87af7Qw(e1:pe#22-04$_#+H/1jL
TS/,BC2Y7jX(/1T$%*f<dg2Y7jX(/ J$%g8<dg2Y7jX(/1y$)s#<9A27[
a;i.X*$x8
_<56( 7Qw3eh(=XjH:b33Td#(:[BvT3J+)9CLWy#(:/X]<%H+:)X:L
T%\6X;:$_#+:d,pJ/JW-9126g92A/x*$x#=FMPpJ/#(:/Z
$,,t;6X;2Y7jw<X,J$_#+:r. mb#(:[XlwY<2'/X*$=8
_.012Y7.ih(h(=>#=.012y7Jxc2V(=$#m.012y7JW244:$_#+Y
8ILWyW!(9A277x=0%,mp7Qw39,P/1Sw-91-(J#k *7;p7qW(6
:'mrJW-91-0$8
XUmp(37*9f\xI>MZQ
$r2pT,#(:I/0
o,k#+9A2;0.+(sxl>14W-9U-pX3)*/1+$Uk#+9A27!r)*/1T$Uk$79A27!jP9!1:0[
aY9Y07w##(::Bj770#+0[7j7Qw39$;:1K/A4A2p7KV[o. $_#+y
8>;6\t;:)Xh$42/uMP2Y73w!N3oWy#(:[X!TMkvo9A2p[
a;!MmdV7Qw396 /\t;:)X:$80vo<mdV_#+:Yg;J0kvo)X:L
T*);o. $_#p:5>z_9kvo)X:$%' 4bmdV_#+y
87ZW\#(:'V2jm4):)X15!y)*/1EoYsv7C$O3+/OX97D'.#(:7 -(<<6(/F$V%TOq]ml<64r:x.f>7QwCeh(=Xj,Y
82i/8to:)X)ZE#M!=72Y7763ef+t3j+E8p4h#Ss2oIP.)7wFW['$_#R*'b:)=U)*/1V=<<6#qU[/429'c$o3+/o$%I78%/TUR-g']#=F9A2p[
aMF9A27!jJW*\:7<#=F=X*$=#MF=X*$=#=i9A2p[
aMi9A2p7%m+9A277xm+9A277%mf9A2p[
aMirX*$x#=FKX*$x#MFKX*$x#=iKX*$x8
_ID>2Y7jwfDIa$_#+:dcl[7Qw(9EL$_#6m*\:P>8
_7Dx*$x#;FKX*$]Jx>*\:P>.;or>G6\%Yq3y2VUgW-912'.[5 9a27[
a2036( 7Qwx[b+)<<6(/h$v%toQ]ML<64R:%iAHO#(:S25Px]WOX.F$_#pH/V(=E8
_6X;:$_#r*/B:;j;4$%-'Dx/tur-G']#\39a2P!3Ue$X]57qW(E1YPb-h:4U2y7763E :)=a;.UDI>,9S77XLMJ#(:7pLMJ/TUR-g']8
_.u32Y7jX(ujs0$#M(9A2p7dy /x*$]JxeU%+;tD;6x1G6\%Yq3y2V+sp:)x:ziYJE$z
$v+Su:)X1=x++(/F)5tD;6x%G6\%Yq3y2V+s+i9a2kx+4w'%EoYDY /cG6\%Yq3y2V+spi9a2k<-I>(1:oYDY [cG6\%Yq3y2V+sUi9a2k3Jx([/hsja;o\7j,6*9F\Dfk[
a;<032Y73X(ufT$,DKR-X*$3Jx(//j(x5WUw[P$_#+H[*23\C 69A250.+3'z
$<m:[f9A2=$+uM$%(=Xj,:%-'6x#(:/B:Px;Um[ 2v+ST39A2p!v4#(v23.<+:)X15!;,c'25Pxy_or$(P6*9F\Dfk[
a=F]2:$_#pH' jT3J+e9Iit-#(::B);<5)*/1v$,%t9-X*$h+4m$*(=xJl:3#2Y73)*/1Vl
T\D'X22Y7jw+%2i$_#4H[ujP=<_([*289dw-9 (OX-+:KPU[7Qw3*\:p<8
_fkpu[7Qw(e1:pi;i#//2[yz/[9A2p!j+('/V(<#/ob> $_#pH(1E(0.+($Xl[YZ/o9A2p!j+(: s0H-q
$K8'$_#+:\.\ 7Qw*/bHp<Yw+J=ajm'w-91-S>vH:r[\gSsv;)X:Z=3Uc'*0
o0s$(9A2p!-H)ix(J10W-91-p=UHW9-\x7Qw*[xMP7Qwx[jszi]_O01g6\%yQ3Y26rJW-9y 6rJS2Oip.)7Q
$r4:$_#6cE*+;h#!'9A27!U4)$25pX]wf0=2Y7-)*/ J$r0W-9 -*=])*/ Vl
T%![9A2=e+LE/h(=X-+:0>2Y7-X3' (=X3+:r4A$_#63EJ(=x3p:]4A$_#U9!1h5[
a)R9A2779k'Xx*$]u3#(u5V+Z$ C$O3+/OX9$p/1sW-9y)9E3_o]-Ug%/tur-G']#$(9a2k=++w2*$V1JS2Oip.)7Q
$5gU$_#r(EVj;x;_o5gU..k=6Ce1$13W-912GB#(:[X/P7Qw(6
:/77Qw(*\:pi#\9x=2Y7.+h/h);Jrwf42'G7Qw(e1:)X-L39$]t%[w-9\:zXjPY
8p4A7Qw*:bVt3j+#9p4x7Qw(9$a3\#(:/BSPhVW2%8/3s3w-91-pBv3C$z
$6yCFfk%2Y7jX(//T0eUw2%8/3s0w-9\HzJ;3p9p3WRSw-91-5=YHE9$PGo#(:IBS*>5Q
$%2lJ1#(:/B:s=R3:]0AX03W-9/-S$Yu981:*7*k%-2J$_#pH2/h50.+3:X\68T! 9A2p!;H(2/0
o.D# bX*$x+Uc'Vt$.D# bP2Y7.+h: )SB#toW7U37QwC'h+0X#5<fX*$]y_oY0>..k=6Ce1L
T';<Dx*$]3pwE $9x,K!nm;..k=6Ce$V8DKiC$O3+/OX96 /Uk#+9a2P7';iO8z$_#3(/x3/uK#+9a2sxJQ
$]64a7Qw39$3,-#(:/Bj)$3I:d62Y73w'R$>GX#(:UB+(h<6([10
o1%ta5 2Y7jw[*7;p7Qw#evVp=#$ZWPl$_#UH/HST3J+e93!hy%w-9%-5B34>*::pe8
_%N8 37Qw(eUV*J]u:*g7V,#(:/Bj;<y+#9=7A-[/%9A2p!jP(sv2x42F'k>2Y7jX(/U+7>8
_%wG/GsGw-91-SJUPp9[7A-[/%9A2)7[#z-8Z<7Qw(e1y(eY3>937A-C 69A2p!j+M$/e0J8
_%wG/h#9w-91-pi3JC$*2t42F!=-2Y7jX([Us0$# !n378+#(:[X;HOgW-91-pXU+(2*0
o-cd%9A2p!j+((Uy*Bvw%wGa$_#+H/*S7h5h:58!/Y#(:/B:P$#f!n0 $_#l9!1:([
a/!n0 $_#p9!1:07\#zkx*$b#t032 a0#(:[XIHOg;:)XhL
T\203x*$=8
_%N0D$_#r%n0d..k=6Ce1$s2;09a2kS2K0C$O3+/OX9>!xm#(:/XAaY%W-9YaA9%s2oIP.)7q
$KgU37QwxkGu36*9f\dFK7g=%9a270.+($Xa30#(:/by$s:w-9H-s0.+3[Z
$[g[T2502Y7jX)9>]G.*$O9A2p!5w6J3a<7Qw*[x;[Y<W-91-*[
a90W[2Y7Uw+M_\$_#Phixpwd:/69A2=X++p6
:]J=#(:7\:Zjul$%,'76*9F\Dfk7w23rX*$33XW:h(=XjL:47J$_#6(e1sSJrwRx22y7763EVY9tD! *DI>,9S77X4m%3W-9y:ZxJ4$%c]J=/tur-G']8
_r5 2Y7-XWifH90.+3/xMX=#(:7%-)bVU9!%:N%<92*650!53e2257>7Wrk 2Y73X)2%+90.+3[xI:%#(:/Z
$G%#(:7\)*I+leA7(>.<5$IH+)<a;'xDI>,9S77Z
$ #t#Ump2Y73w =.7>mdw-9 28mC$:)XSP!3le*:S77\v!-X*$J+3(/1(OBrq
$=.7[7QwC/b+p0A+#92o$_#I3/1:PxJW'Jx*$=#)T9A27!3q
$4_2Y7jw =.7G7Qw3ev2j#t#[9A2S!rw+X[Dh7Qw36
:</9#(:IB)s0.+(SX</UZW-9 -)0.+3:x</U2K:)XhZ<<6([u28*zw-9 -p[
a#,x;U UD(:/Bh$4L2ab6(<_#+H[X/<9#(:[12'*0y<9A27[
at[bX*$x+hP[F2[*zw-9Yaf6*9f\dFK7k8<9a2P!;4c'Xix9xk:)x:zBjJW6
:AF9XK:)X1[*ZMq]ml<64r:o#u,9#(:/b:(e5J:]3u,ozw-91-*>#/,BC!/7qWXK#U,O/tur-G']8
_U.04A9#(:/BY97G8O9A2Ksls2oIP.)7w%.04V7qWXK#U,6*9F\Dfk7G8<DG $_#r%.04a6*9F\Dfk[
a22-X*$x++([/v$%g8:)X:ZxJp(SV2j.0kI9A2p!j+3/%V$%g8<dX*$x++([u)0[
a22-04a7Qw(e1:p=#2%.04a7Qw(e1:p=#O W02Y7;q
$%c<$_#+y
eMDv0%w+OXZ>mzwF*-(37qWP:Z
$3\C :)XhZb<6(/*23\[o:)X:Zb3)*/1Y$uK#+9a27!V49!1:(7X9'3X*$=++3*\yl
T9);B8D87Qw>e%H$-c R=8'$_#p:]=3G\G*.)x:$\tFUmp2y7JQ
$K=I>MDW-9 2hoG90%x*$=##z-MDv7qW39g(w\T;:)x:l
Td#0o. $_#p:YPU>MDW-912:-T;8O. y7JW;n='T\T;-910
o.<5uMP2Y73w'k[N/\t;-912J8\%<O. y7JQ
$x[d>7QwCix'w)<W-9YJz$r)*/1eOySV7c[o.)7w mEi$_#r3EH(=xJ,$%7d'6\9q3y2jm49:)XjZ$R)*/1EL
T<T<y.F$_#3H(X4H#sW-9Yyt3j+#8p4h#Ss+odFK7%#+xX*$].4h'vyt3j+#! (=>E35B8!>1/ UcE1$,%w-910
oU%W-9123,\w-9 2,,\w-9 23u#(:/Z
$,u#(:/Xl,##(:[X4,##(:[Xl,,#(:/Z
$,u%w-9123,Gw-912,,Gw-9123uGw-910
oUX/:)X:$,X=%9A2p7xmfkx*$x#;FKX*$]JxP*\:P>.49!FWsfZ#ZO=G8\/OX6
: ,S#(:!V(=xJ,:3i2Y7.39!1:*74m:)X:$)*$;xX*$=8
_ mE3tD#(:7u-Ph<6(/F$V%TOq=mG']#;FK8!$_#l9!1:;7D203a:Z>R)*(Z
$<%h+:)X1P!-p(': <%H+q=mG']#\39a2P!-pe[X]57qW*/B:P$Rjc9,)$_#R*[b:)7A;.udZ>64RY
8,)x7Qw(9C:$_#+:%-'p7qWX/: V+s+q=mG']#;6x 2Y7jXp[1yl
Tdy 'x*$]Jx(U1h7tD;6x%G8\/OX9PpJxXW-9y:Z>u_o%-'PU/ uCe1$y923Dx*$HrPp/1:$y92CDx*$].+h'h$vy92CDdZ>64RY
8pu\-#(:/BS9<RWUw[P$_#pH:*v$+T[TrX*$x#;6x$:$_#r#Euj)0.+($: V+st(C[O.)7Q
$%-'6=#(:/B)s<RWf]2:$_#r3Euh70.+($: 3.<+q=mG']#=2*32y77IHIVST3J+e7XFf7qWe*\:P>8
_+N='t7QwC*::5X# o*$2Y73XCi :S0A+3sxz/Y#(:[2$PbJW%%0a$_#+H/1:5I;3y
8> /s0w-9\:zXjJ(sxAV9g;:)X:$Sc2:)X)Zx]lm*\:P$#Y0j_2Y7.+h/%H)B8
_+J=ajm'w-91-;<-i:*7;P7Qw(e/:(<#) 532Y7.+h'%:979[[9A2==8
_r/x*$]Vj(Eu5VrJS+ODfk7$$:)xJzXY39!1:;7$f:)xHzH]H9!1H*7$/:)x)z<;H9!1H7[
a)R9A2779k'Xx*$]uj)S15V+Z$ C[O.)7W2\0;J7qWX'1:$3Dt6b='.#kS77X;p7qW3E%t0[
a$ZbX*$]3x>'*$V12Kq=mG']#$39A2p7[u:)X:ZEVle93:$_#+y
83H$_#+:42'g7Qw*/b:S>v,:r,(J1#(:/B:Pb5,e9C]t%[w-9\:zX3uY
8$]t%[w-91-pX3uC(x ,O#(:/X ,-#(:/XI[,kW-9 -7Hvq
$]P7X,gp:)X+Z<],c(25PxRW2%8/3s-w-91-p=343:U26yCFfk32Y7.+hsfe*eYwOy.mj7Qw(e*e;J],Y
8$PGo#(:UX T,s$:)X:$.Z/[* 2Y7YXEsh(OXj,:]0AX0-W-9U-(Hr)*/1Tl
T:T;m4'$_#+:]P7J9#(:/B:0bJl:]P7J9DW-9126yC2<Rx*$x8
_;B;2Y77L:8p3/// UcE1$8DKi9A2K=3Hh(x$9X,k!NM;.#Ks77x3V9X9!=X*$IJx>:X3VUk#+9A27>jq
$Y04>4\W-9 Vp7*5INx*$b++>'XI:U0W-9\:z=UiC9C3$_#r381-5fZ#ZO=G8\/OX6
:;3.H$(9A2S0.+3[x;3.H$39A2p70) 512Y7;XE9=!hy%w-9%-)JU4#*\:p>8
_[N8 37Qw3ef+per)$/1e$S2#orX*$x+4:*g7V,#(:/Bj0$u,e9=7A-[/%9A2p!jP3[z
$x42F'k>2Y7jX(/ e$Scd[5>A$_#+H/*)*7\#z-=a[7Qwp9=7A-C 69A2p!jP#[UJ7[
af!n378+#(:/B:PbJ4w(u2[42F!=-2Y7jX(/ s;>Yw9wG/h#9w-91-pX-+3'f)$#cd[W[p$_#py
8=7As#(:/B:7x]ImIX/HOgW-91-pX33C:U2[42/:)X:ZxR4wUHh$1cd<%X*$x++((J+5[
af!n0 $_#,HS25PxuW%wGuv7Qw(e1:p<rw+wGa$_#pH/%S9$#t032 a0#(:[B:5[
at!n> $_#p:=7d'7Qw#eh+l
TGD<mx*$]3x3S257x,\%nPd.#kS77XAaYTW-9YHz=Y)*[1[Ms2;0c[o.)7w%N3D$_#+:Kg 37Qwxs257=,\%NpL.#Ks77z
$[oz=:)X1*0.p3A,AaY%S+ODfk7G=%9A270.+($xA30#(:/BY$S:W-9 -p$<6([10
oSw$2]=U$_#+H2XAm1*t'%X*$x+h:\_/[+#(:! 2Gsd):)XhL
TKV!=x*$=RW+m_\$_#3H[Xpwd:/69A2p[
a\ [X*k3Jxc[u)oYw23C[O.)7W.x l$_#6>e/sS0.+((x]jB#(:!1-pHU3W9i]Jb#(:/b:p=54M6
:MJ0#(:!1-(hJ,:r4'T7Qw(e Jp<#!'[X*$h+hP'25Px]Wr- 2Y7.ih2 et3jP#6
:M[=#(::Bt(0.+3/XI:%#(:7 +P!5U$/B)Pj,29O$(:]#$ 9A25>-L(6
:\8Mc90%X*$=#2+M8OwY#(:[Xzw4[W-9 -S=j)$:%28mCF:)X)Z=-4(*:j)[
a 0W>2Y73X#s1(OXUw9ox*$h3+(/1:P7[[:)Xh$0:W-91-;[
a\T9A2p7S 0w=2Y73Xp97ZW40w-9U-07\2+m82Y73q
$.0U$_#UHU1)T3J+w9#u,9#(:'Bj*$5)*/ )$*zmzBx*$B+4>*\:7B# ,Bx*$=+P(/h0
o4L2ab_4V_#+H[X7F%HK;*-*$x+p:--U$_#p(9E<x+zw-9 0
o#L;:)XhZxRW2-02Y7jX)(he;7G8<9A2K=+39!U[Msls+odFK7K8<9A2p!;uM$z
$6-zm<9A2p!Y4:K#U,9#(:7 (==J<.K#U,6\9q3y2>*zm<9A2p!3w2-04A9#(:/BY5[
a/,bc!/7Qwxu257X,\%.04A6\9Q3Y2>*ZMZbX*$X+L:k# $_#R3eU(=J,\%.dZ>64R:k#u,y#(:7 (==j<.k#u,6\9Q3Y0
oSLKinP2Y7739! :ngG8<DGg8\/ox97IX7qW(E1:7<#2%.x*$X++(/f2J.0Ki9a2P!J+c6
:'[*ZM:)X:ZxJ+w97ix9xD:)X:ZxJpc97af9xD:)X:ZxJ+)9E'h9#(:/BEP[
+90%2l$.Kw2O.U$,<y9Rx*$<vq
$rm787Qw3e%(=XjJ:RM;'7qW(E%hT3J+)9Coh##(:[BjT3J+w9CoG)#(:[B:70.hy
8-(:9CV+9A2)!-P:-8z\#c2:)Xh$.[5'o>>M_#+:o./>mdw-910
oS[tuMP2Y73w!N>oWy#(:[X7A-KVO9a2772)0O. $_#+Y
8p7W\t;:)Xh$8DKuMP2Y7jw;-. e\T;-912:O[29O. y7JQ
$]23>MDW-9 2Gs\%<o. Y7jw Y[n/\T;-910
o%\vu9A25<#20322Y77uhsv(=Xj,$%7D'6*9Q3Y2jm4T:)X17!y)*/1EoYsv7C$O.)7W mEo$_#UHSV(=xJ,y
82i/8to:)X)ZE#M!=72Y7763eU+50.+(s: ,4\2Q]Mg']#=!=72y7763E%vT3J+e!V(=Ee35b8!>1/tuCe1$,%w-910
oU%W-9123,\w-9 2,,\w-9 23u#(:/Z
$,u#(:/Xl,##(:[X4,##(:[Xl,,#(:/Z
$,u%w-9123,Gw-912,,Gw-9123uGw-910
oUX/:)X:$,X=%9A2p7xmfkx*$x#;FKX*$]Jxm*\:P>.49!FWsfZ#ZO=G6\/OX6
: ,S#(:/Xf37Qw*u25pXYw7Dx*$x#O256'$_#+y
87D'8<[:)X17!RIP*\:P>a; MeG6\/OX9pL[42w-9h(=Xj,:%7d'_3x(I25;[
aY f12Y776(eU)Oy92A/di>64R:4 2Y7jXM:v)$G-W-9\:zX;3W[x]s7Qwx!%-7iU_O4Ug6\/ox6
:]s-#(:[BE(>#M(9A2p7dy /x*$]Jx(/%S*ha;o\7:..kS77X <%3w-9%-Px3Q
$%-'57Qwx!1-pH;HC8p <%-s2odFK7DY /c2y776(E1:P<3I#8P <%JMq]mG']#;6X 4$_#,M:j:$y92CDx*$]j_O%-'5u/TUcE1l
Tdkr-x*$x+3c/J2>4\y:)X:$+T[TrX*$3Vx3SV(=xJ,:%-'6x#(:[Bj;j<6(/F0
oY922[X*$x#=2*12Y77Phu%Jt3j+W8pL60js2odFK7%t9-X*$i+PC*\:p>#o,9a270.+(SZ
$8o[299A27!v)$/%:$#D)29A20!33C/ (OX3J:=0 $_#p981jP7G;<kx*$x8
_%%0ax7Qw(e1:9HU3:KPU[Y#(:/B:Px],3:XAH%#(:/Xpwd:W-9\:z=3PW6
:z 1g20YX*$=+U)UX(J1JW-91-pHYH)92'G-#(:!1-Pj3hm9-\x7Qw*[z
$\X#(:7 :;!]_o01G6\/OX94;$_#jHUJjT3Jp(94/$_#pH$VET3Jpe94a$_#UH'1ET3Jp(6
:(\7Qw39-uG%#(:7%j9>J+*%-Ug%/tuCe1$.9k'Xx*$].PC/15v.9k'Xdi>64R:512Y7jX>(%)l
T[D<9A2K=++C[: Gozs2odFK7[P:)X:$1-W-91-7e]L:-12Y7jX(/1s(B8
_[[x*$x++(/H)*<#\9x=2Y7.+h/v+S=#=.*7;$_#+H/1t*b3WI42'G7Qw(e1H)BUq
$],(J1#(:!1-Px3lw2X ,O#(:!H-7EV)*/1E$YXf:)X:$.g=u9A2p!v+([z
$6yCFfk 2Y7jX([U+pe;w2%8/3s-w-91-pXjPM/h)07*;!-Iax7Qw*[bs7=ji:%6d\%#(:/Bj;jRhw6
:I<12W-912v0%2'9A2p!jPp2xlV0%2'9A2p!j+Cije$.Z/[* 2Y7vXM2h(OXjLY
8$u[-<u:)XhZ$Vp9!1:*7:T;m4'$_#+:]P7J9#(:/Bh*>5W2%8'/y#(:/Z
$6yC2<Rx*$x#5<fX*$]y_oY0>..kS77X3v9xw-9yh7I+U:8J:N9cdu5DI>64r:ypu,\C :)xJ(!;q
$YP4>4\W-9 Vp7'kIo8Z$_#U(/XI:U2W-9 268xF:)X:ZbVh36
:4:7Qwx[::z<,k!NM;..Ks77x;3.h$(9a2s!Rjm(J(=x3+:5Iid13w-912X0s$(9a2;!Rl([V0
o12#orX*$b++e:25PxyW[N8 37QwCe%J7<v)$/1e$S2#orX*$x+3eSuE57<D!%I2Y7jXC(vVpe8
_'wG/GsGw-91-p=jLp937A-[/%9A2p!j+Mi V$Scd[5>A$_#+HUut7<# !n3;[S#(::Z
$G42F!=-2Y7jX(2*e*Jvw[wG/h#9w-91-pX;J>(v)$Scd[W[p$_#+H/*h(buj:*8!X4\Y:)X:Zx33>IJ0
o#cd[W[p$_#p:58![7Qw(e1:(XjHW937As#(:/B:Px]3)S%S$Scd%9A2p!jJ>[/y9[
a$!n0 $_#+H/1Y$-cd<%X*$><6(/*2[42kO9A270.+(ixzHOgW-9%0
o.TO9%g($_#+H(*2642/O9A277\203x*$x+lc6
:Aa9TW-9YHz=-)*[1[Ms2;0c$o.)7w%NpD$_#r3E jT33+54>!VM/tuCe1$S2f09A2p7GDORx*$]]xP*\h7fw/Z%iG6\/OX6
:Aa9%W-9Yez<<63[9][od=Q]Mg']#/FKX*$=<6(/*2[,<w-91-97G[:)XvZxu39!1h7[
a/.5$Ig9#(:/B+$Sw$2]= $_#+HIXp -gY:)X577[/O*x*$x+ly
8MDh##(:[V28m:[:)X)Z<#Y0j_A<7Qw*/b:7Xrq
$47h$_#6(E%+*h#t.x 2Y7jX(9,'7,#(:'B+7><6((X]jB#(:!1-pH;3p6
:MJ0#(:!%-PEVWr5 2Y7.uh21et3jP(94/77QR3ehH*B<6C/9't\*);!/-S$]J9!1H*]8
_rk 2Y7.Ph2U+t3jP(9$3j7Qw*iU-(7[2:)XhP<JW2]6'Y]j_O]6'..Ks77z
$ #t#Ump2Y73w =.7>mdw-9 28mC$:)XSP!3le*:S77\v!-X*$J+3(/1(OBrq
$=.7[7QwC/b+p0A+#92o$_#I3/1:PxJW'Jx*$=#)T9A27!3q
$4_2Y7jw =.7G7Qw3ev2j#t#[9A2S!rw+X[Dh7Qw36
:</9#(:(BjT3J+e9#u,9#(:IB)T3Jp>9#u,ozw-9v(=X33:=#U$_#pH/V0
o4L2ab_4V_#+H[X7F%HK;*-*$x+p:--U$_#p(9E<x+zw-9 0
o.0K:)X:Z$Rp#9></7Qwx/b:p=;<.k#g6\/ox9m</7qW(Eu+5b#T[BCu$_#+h'1T([
a/,bcU$_#r3*\:7x,\%.04..kS77Xof9xk:)x:zXU,)$xix9xD<9a2P!yl:k#u,ozw-9y)Zx<6([1[mSLKinDI>64ry
8M</u2k:)X:Z$5W%.p2Y77+h/1HSFW/,c$o.)7w%.04v7Qwx[25p=j<.k#u,6*9Q3Y2[*ZMZ%X*$];X(*\:7X,\%.04A6*9Q3Y0
o%*f:)X:ZxJp>SX'[*#(:/B:P=JlP97ix9xw-91-pX3+Csx'[*ZM:)X:ZxJpmUV0
o%*f<dg2Y7jX(/1H$%g8<dg2Y7jX(/1H$)s#<9A25[
+90%2l$#Sw+O.U$,<y9Rx*$<vq
$rm787QwCe/(=XjJ:rm;'7Qw3/25pX5wIo8Z$_#3H225PxuWIo=F$_#UH[25PxRQ
$\23/4T :)XSZb#f!=4zH%#(:[XIg8[9%f,*$=#90-mdV7Qw(6
:Ag.kvo9A257CD%o. $_#+:Wg/>MDW-912A0t90%x*$x8
_Ow.oWy#(:[X3V9kvo9A2p7'F0%OoWyQw(96!tmKVO9A2p[
a5Z57(>MD(:/XIT8kvo9A277[/+>0oWyQw(9738az90%A2p[
a2+Mm2Y7-4:x.fT7Qwx2bJt3j+#8p'W)/  'vg']#203$2Y774hs%(=Xj,$%7D'6\2CidFK7SV7ox*$$++3*\:PE8
_9]03W)#(:UBE$Uc  9A2K33)*/1eOyx#+XdZjBrs77xLh#Sw-9yjZb-he/u+T3J+e8PlH#sS+x%+.)7Q
$ri2Y7jwIRx*$x#=F=X*$=#MF=X*$=8
_fDx*$x#Mi9A2p7%m+9A277xm+9A27[
a=irX*$x#MirX*$x#OF9A2==<6(/h2'u#(:/Z
$'.[5 9A2p7SV7y2\$_#hH'25Px]WOR>7A7Qw(6
: 3S#(:7/-0><6e8P 3S/  'VG']8
_6X;:$_#r(E/Y5tDY f1G8%-4q3y2m=#(:/bJ*i]i>[U2mb#(:71-pi3_O4%g8%-4Q3Y2MJ#(:7\hZIVI>8P]s6\2cIDfk[
a\m-X*$x++w[*+97x+:)X57!y43$25PxuWO\7:$_#rmE*:0tD;6x1G8%-4q3y2V+sp:)x:zJYHW(z
$v+Su:)X1P!J+#(%:0tD;6x%G8%-4q3y2V+s+i9a2k3Jx>(1+oYDY /cG8%-4q3y2V+spi9a27!J+mU2$Px5Wo\7j,7qW(E 0
oYZ![9A2p!3ipixOH#9W-912<m:[f9A27!-i($25pX]wO\7ip7Qw(6
: <%*p:)X:$,*)(9A25!;+M[25pXUwf]2/$_#+:\3O$_#6m6
:fF7Qw3e%(=XjJ:=g;J0#(:'2$PbJW+%2i$_#IHI/Ss<34981h(7\kO9A270A+C/z
$6/C :)X5P!34cU1v)<#/ob>2Y7jX(/Ue*>jJWuxAV9gf:)X:ZxJp3IHY5xVW%%0av7Qw(6
:AH%#(:2Bj*h3UcI25PxRW6m_\$_#6(E1E)x]3:=_;[%t5:)x:zi;+3(x(j1jw-91-Pj;p([Z
$t%[F:)X5P!J+P$FY97$+:)X1P!JUw'J+oY$+q=7j064r:R4:$_#R(e1:p>A;f01g8%-4Q3Y26rJ(X/: 6rJS+x%+.)7Wr5x*$33x)/1ST3J+#6
:MX7QwMe1:p=<6([h2\s#(:$B:0x-)*/ h$0$W-9 -9i#Y<572Y77P3uf+pTdy<57g8%-4Q3Y26+Z$ )y:oY*Y<57G8%-4q3y0
o1JW-9 -*X33:5gU$_#r(Eu)5I5_o5gU.#sUPCe1$13W-912GB#(:/BE0[
af(9A27!YH#2/T*0.+($x/77Qw)evH9ijP#*\:pi#\9x=2Y7.+h/1y5e34:%c!$_#+y
8p4x7Qw(9$a3\#(:/Bj(xV4:]P7X,gp:)XhT3JU(9$ h-%/C9A270.+C/z
$6yCFfk32Y7jX39p3WRSw-91-0$#t65g2Y7jXC'vJ$Y<= 5X*$x++(U/t0[
at<K3(77Qw(9$u[-<u:)XhT3JU(9_i:m$2:)Xj9$+Iw9$ h%zw-9*-S0.+3[z
$6yC2<%x*$I+4)'V(=xJh:]P7J9%W-9U-;XYi:Y0>$_#re8P3///  'VG']#5obc2Y774(/bV*Td5OBCg8%-4Q3Y0
o8ZM:)Xj07';I9A25<#5obcOH##(:/X3VUk#+9A27>jq
$Y04>4\W-9 Vp7*5INx*$$+jeS/(=x;j:]64X7Qw(e :5XUwIyx*$=8
_'R$>GX#(:'BtP>3)*/1Y$1%ta5 2Y7YX)[Ue$-<2'/X*$bJx)IX;a4D=:)X:L
T0D!%I2Y7-XM*::pe#/ZWPl$_#+HIX(a4D=:)X:Z>#$!n3;[S#(:/BSs[
af!n3;[S#(:/B:0h#/!n3;[S#(:/B:(<# !n3;[S#(:[X;HO0#+\X*$x+3P6
:/HO0#+\X*$x++m9>7A-C 69A2p!j+)927A-C 69A27!3w+wG/h#9w-9U0
o1cd%9A2p!v3:-8![7Qw(e1+)7G#zkx*$x++wIX;HOZ;:)X:Zh;Q
$-8!/Y#(:/B:0h#/!n0 $_#+H/*+$#cd%9A277*V7*p!t7Qw36
:IHOg;:)Xh$#sv79A27745%yGH$_#pc9E3[82u:)XhL
TGD<mx*$]gd<MDzJbRS77XaAytw-9yAa9TS+x%+.)7W%N3D$_#+:Kg 37Qw3*\:7X8
_%N0L$_#p9!1hP7G=%9A270.+($xA30#(:/BY$S:W-9*-50.+3[z
$[g[T2502Y7jX)9-\xs9w-9\H$1g;99A27!3wUm8Z$_#UP6
:zwd:W-9U-(Brw6m_\[+#(:!1-7bJ4y
8,'77Qw*/bJ9>Uw.X L$_#IH( h)0.+((X]Jb#(:!1-Pb-Ic'XMJ0#(:!1-*bVpy
84;77QwCeUV(<<6(/f2\-3w-9\Hz$YPM*\:7>#!%[X*$=<6([ 268Sw-910
o1sW-9UTp=jq
$j[dH\T;:)Xh$%\v!O. $_#p:=.7g7Qw)e%+tTji39[Dh-#(:UBh5<<_('J0
o#T#%9A2*!U4981:;7<9:)XS7xJ+(/12GD#(:[X( 7Qw36
:] 7Qw(97ZW4[w-9 -07S 0w32Y7;Xp9['8mCw-9 0
o*ZK:)XjZ<JI9!1:(7lkIBx*$$+3#$H(=x3I:.04a9#(:UB);Iy)*[u28*ZW-9 -P$V4y
88<j/z[I%A2p!j+C21V$4L2ab6(<_#+H[Z
$f9dw-9%-0Xv)*/1T$*ZMo9A29!;,Ws25p=vw,BC!v7QwMeUe(><63uxzFY#(:[B:9hRQ
$]3U$_#+H(Vj$SLK:)X1[*/  'VG']8
_U.02Y7jXC$jy$.0KibX*$x+,cIF2[*zm<9A2KslkIc['5</ox9m</UZW-91-7x]py
8$//u2k:)X:ZEuje9></u2k:)X1[*ZMZC['5</OX9M</u2k:)X:Zby3)9$/v7Qw(ef+5[
a/,%X*$]g8q=7j064r:o# $_#+h'*y97*f<dP2y7Jx#'VE$slkI%x*$]G8<DdZjBrs77z
$>*zmO9A2p!3+#[xIX9Xdo9A2p!]JWsxAF9Xdo9A2KslkINdZjBrs77xOF9Xdo9A2p!-LM2z
$j.0w-91-pX34:x><$_#+H/1:;$RW ]3u,7Qw(e1:7>]w k#u,7Qw(e1:p=U3Y
87ix9xD:)X:ZxJ+3'u2jslkINx*$x++([%v$)s#<9A2)!jJ(:xFj4dw-9/-PIJIy
8po[o#(:/X >Y2W-912v\GD 9A2p74DI9A2p[
aOZrX*$x8
_;B;!$_#+H[X!X\c :)XhT3Jpc96/6-#(:I12:-*;:)X+P[
a5[]02Y7r+:Y3 X7Qwp/x3X90W-9v:$#2/0=X*$=8
XUmp(37*2:]MD/7%)6*i2y7RIy
8Ioh##(:'BST3J+w9IoG)#(:[1-70.h:dm787QwMej(=XjJ:dm;'7QwCe Ht3rq
$\23/4T :)XSZb#f!=4zH%#(:[XIg8[9%f,*$x#90-mdV7Qw(6
:Ag.kvo9A257CD%o. $_#+:Wg/>MDW-912A0t90%x*$x8
_Ow.oWy#(:[X3V9kvo9A2p7'F0%OoWyQw(96!G%<90%A2p[
at9YmdV7Qw39=a8az90%A2p7S5+>0oWyQw(6
:'8MkW-9%+$%TO99A2K$+i9!1:;Td203dijBrs77x'w)*W-9Y+zer49!1:;Td203dijBrs77x'w)kW-9j-7$r)*/1el
T<T<y.F$_#3H(X4H#sW-9YTz<<6(/f$vuC  c$'5</ox9i78%#(:7h(=Xj,$%I78%/T 'vg']#=F9A2p[
aMF9A2p7%=+9A277x=+9A277%m:)X:L
Txm:)X:$,X :)Xh$UX :)Xh$,X=:)X:L
Txmf9A2p7%=%9A2p7x=%9A2p7%m%9A2p[
aMiKX*$x#=ir>2Y7jwIDIa$_#+:%iA$_#r>E1(=xJl$%Pl[6*2cIDfk[
a;iKX*$=+I9!1:*74=:)X570.+(SXf61'2:)Xh$%TO;*_2Y77Hh:25pX]_OX.F..SupcE1l
T92A/x*$].+H:1)s<.;6x;:..sUPCe1$g3w-91-9b-W.'X*$].+h//yS<A;.'dijBrs77x]s7Qwx! -pB]i$%,)..SupcE1l
TW3[9A27!3L3'x4P7Qw(9pPjX#(:7 -;E]p$%PpJx/t 'VG']#;6X 2y7Jx>(*0
oY92c9A2K3jX(i/:)iA;O\7J..SupcE1$y92(Dx*$]jX(2: v+S+Ic$'5</ox9PpJ=XW-9J:PxJ+:%-'5u#(:/bH*e5q
$%0MX7Qw(eUs*BvwUw[P$_#+:]m78+#(:!1-PbRI39-D D%w-9\ezJYH9!1:;[
a;6x$:$_#63E1ST3Jp(9pPj.3w-9 -7>Uwf]2:$_#r>EH:*h<6(/H$V,*)(C$'5</OX9iIT-#(:!%-9$jJ9!1:*[
aO,9A27!-)*/1T$#2$ *X*$b+,P*::5x# o*$2Y7]XC:2$p=Uw+Bp2Y73)$/%:l
T**!=x*$x#/ob>2Y7jw%%0ax7Qw(9> /sdw-9/-(B5)*/ :l
TG# 9A2p79VtJx*$3Jx(2uY)=#M6M_\$_#6(E1h07*y0J_2Y7jX(//e7e5q
$=_;[%T5:)X:ZhuW9X=:$_#+H/FEs$#) 532Y7.+h[ +Se#YT-X*$33x3UHj7[
a!(9A2K=jL$%4:..SupcE1$.$+:)x1=X+HMs JOy*!(c$'5</ox94;$_#Phuf+50.+3/xi\1#(:!f-(<<6([%0
o,$+:)X1PtD=R/DIJbRS77Z
$\-#(:[Bt*$R)*/ v$.$f:)XhZ=R)*/%:$rgW-9\)zX;)*/ H$.$/:)X57!3l>225P=3Q
$*42Y73w6B='$_#r3U*+Pxa;6b='..sUPCe1$1jw-9 -5$Rj:5Gu$_#R(e%TSiU_O5Gu..SupcE1l
T*y<572Y77+$%$P/1Ss2X%+.)7q
$5 2Y7jX3'*V$1-W-91-p$rH:-12Y7vX3(1st3j+W93H$_#UH: tT3J+)6
:]T%[W-9\:zX343ixlm0s$:)X5P!J+3UJh77*\9X=2Y7jX(/vTSe#;inX*$33xcS25PxyQ
$%c/$_#63EJ+50.+(SXI[,kW-9 -pXrw2%8/3s3w-91-7e]i)'xIV40=%'X*$=+4e:HET3J+)6
:IV40=%-X*$x++(IX :M$2:)Xh$.9$Z9A2p7d)fX=2Y7jX(//)7H8
_f%2Lj1#(:UBY;$<6(/*269GF9[x*$><_(/H269GF9'x*$=<6(/H2 .'VrXx*$x8
_2%8'/7Qw*[bJ00.+C/xIV4sKo9A2p7*;!X0L$_#+:Y0>$_#re8P3///t 'VG']8
_;%04$_#rm/u-9<a;;%04..sUPCe1$8dkIo8Z$_#upe )$8dmUw[2y73l(96U,\c :)xH*X8
_2yC!$_#l9!1h57*5I-x*$3Jx>'FE(7x5:)X:ZEy+w9=L6/[+:)XjZj]hP225PxuQ
$5iID13W-912x0S$(9A27e+Hp:/2GoC;f9A27!]+W$25pXUwI5G7v,#(:IBS;$<6(/H0
o-2#orX*$$+IPIH(oxJ,:Kg7V,#(:UHhZhRW9N8 37Qw*$bJ(i-q
$KgUw7QwxkGuW6*2CidFK7gdoMX*$]GD<mdijBrs77xAa-TW-912[od=:)XvT3Jp36
:Aa9%W-9h(=X3P:KiA$_#p9!1:(7G=99A2p!5w%Jx*$I+p9!1h7[
a/.5$Ig9#(:/BY$+:f%\X*$3JxeIX;[Y<W-9 -p$#90W[2Y73ih'/0
o#T[T9A25!ULp9-D DGy:)X:Z=-pP6
:]J=#(:!1-5<uj39,'7,#(:! -)H])*/1V$gSu:)x5p!ji3[xmj0#(:! -)Xvq
$0=h$_#,H//hT3Jp(94/77Qw*'bT;$<6([h2\s3w-9\)ze<6([ 268Sw-9\H(X+PY
8='$_#pPSFvL
T: 0wMDv7Qw397ZW4KVO9A277\V!5x*$$+peS2$PhJW+m8/$_#pHI2$PbRQ
$=.7[7QwEe*+tTj+#92o$_#I3/1:PxJW'Jx*$=#)T9A27[
a\T9A2p7S 0w=2Y73Xp97ZW40w-9U-07\2+m82Y73q
$.0U$_#,H[25PxuW,BCu$_#4H225P=;W,BC!/7QwCe1yt3jP39[</7qW3E E0E8
_!.7>/Dx;-91-pX-PW[x7F%HK;*-*$x+py
8#uv7Qw#e (=XjJ:.04V7Qwpej(=X33:.04aY#(:'B:90.+3[XZfy#(:[bH;<]q
$W#'DY:Mo)X:ZxJU3$ 2h*S*Oy2PY7jX36
:IX9#(:/BY(<VW%.02Y77/,c$'5</ox9m</7qW(EuY*$#T[BCu$_#+h2hTl
TG8<D02Y77/,BCg6%-4Q3Y2>*ZM<9a2P!J+(:V)97*f<dgU$_#+h(xaf9xD<9a2kSLKinDIJbRS77Z
$>*zmzBx*$x+j3'*26-dw-91-9iri:K# $_#r%.DIJbRS77Xofy#(:/b)9>5q
$]3U,Y#(:/BY*I#/,bc $_#r%.04..sUPCe1$\lkI%x*$X++(//+S$#T[BC!v7qW(EF0
oSLKinP2Y77/,BC!..SupcE1$\LKinP2Y7jXW[%T$%*f:)X:ZxJp)97af7Qw(e1:perq
$x$//U#(:/B:Px3W k#u,7Qwpe*+t3j+p97ix9xD:)X:ZxJ+397af9xD:)X:ZxJp>UZ
$'%Ck:)X:Z=#O WP2Y7jX36
BOwY<=:*['$#kv<9I(<0%w-9vsl
T%9!=x*$b+I9!1:(7%9'3x*$=++3*\+$uK#+9a2s!5)*/1t$uK$79a25!3p9!V0
o+<5<W.z$_#IH'X/H#$ !xX*$=#t'Y=O[/w(:/XOw-kvo9A2p[
a/']mdV7QwC98![\t;:)X:$42fuMP2Y73wz*.oWy#(:/Z
$v4t90%x*$=#5obmdV7Qw(96/Wyp90%A2p7'D'X2oWyQw(6
:IT8kvo9A277[/+>0oWyQw(9738az90%A2p[
a2+Mm2Y7-4:x.fT7Qw)e%(=Xj,:x.f67QwpehJt3j+#97D'\#(:2B:70.+((Z
$t.z503x*$j+,:d8zJ7QwWev(=Xj,:r8zJ7QwEejy*0.+((xl37Qw(6
:437Qw(9IL87Qw39CL87Qw39I4$_#+y
8C4$_#+:rcz$_#p:dcz$_#p:rcl$_#+y
8C437Qw(9IL[7Qw(9CL[7Qw(9I4[7Qw(6
:4,S#(:/Xl,,gW-912,u%/:)X:$Y%/:)XjZIul9!1:*[
a;iKX*$=+4P*\:P>#OF9A2==<6(/h2'.[5 9A277SV7y2\$_#hH'25Px]Q
$%iAHO#(:/Z
$<%h+:)X:Zh53#:X]77Qw(ej+5J#=.[X*$3Jx('H2MB#(:!1-PjVjw6
:]s7Qw*[b+7BUw.u32Y7jX(iv+57x+:)X:$Y92(9A2=B+iE6
: <%3W-91-7B-i:%-'57Qw*/b:5X-4:%-'PU#(:!%-PEyh:%-'7U#(:[u:PxJ+y
8pPjBxw-91-7$j3W9pu\-#(:/Bh0xRU:O8z<7Qw*/bJ779VtJI2Y73)*/ :l
Tdy ]12Y75XC'1Vt3j+)9pPj.3w-9%-)XUu:r$(P7Qw*[b+;B3)*/1T$,%t9/X*$=+3>S25PxuQ
$r$(X7Qw3e )*H<6(/*2'*#(:[BjT3J+w9[!G%<w-9128y<T:)XSZ<VImI +TtJpw6
:z/Y#(:[2$PbJW2F8Z$_#+HU/S7<3I39> /s#(:/XAV9gf:)X:L
TG;<kp2Y7jw%w72Y7jw6m_\$_#6(E S0$# T5>'w8#(:[Bh)j-Q
$*7;P7Qw(e1J9=]i:]2'gx#(:!1-PxJ,w2 v$0s$[9A2=X++(2*J*J#YT-X*$33x(/Jj9[
a!(9A2p!jiCij23Rjw-91-pX5J:0=2Y7.Ph$fT)0.+3/xMX7QwCe%+(i<6([h0
orgW-9h-90.+3[x4\S#(:!u-(><6([ 2tR#(:[BY(79k'Xx*$$uhw/10
o1JW-9 -9$Ui:r=:$_#6(E h5<#$ZbX*$x+3m2 +$13W-910
o1-W-91-7B#f(9A270.+3/x/77QwCe*+00.+(ix]T%[W-9\:zXjHM'z
$3g<2'9A2p!j+#$1T;7dmz9A2=<+u>i25pX]wOD32Y7.Ph[/+t3j+E9$a3\#(:/Bh7$yQ
$]P7X,gp:)X:$.D#[r>j$_#+:]P7X,gf:)X:Z=Vlw9p3WRSw-91-0$8
_2\=!$_#pH:u(=x3+:%2lJ1#(:[BSs0.+c/XlV0%2'9A2p!jPM21V$.Z/[* 2Y7UX3$U(OXjLY
8$u[-<u:)XhZ<<6('12 .'VrXx*$x#toW7U$_#+:]P7J9DW-910
o.D# bi2Y7jw;B;2Y77s;B;Z.#z<(e*1$8dkI9a2)<Vx396U,7qWc2 -*>8
_;%C2Y7-H3ehV$8DKiO8z$_#h(96 ,\C :)Xh*x#5<dm787Qw3s10
o.'MZ9A2*0.+3'xI:U0W-91-p>rH#sx4:7Qw39=L6/[+:)XSZx54w'25PxuQ
$5iID13W-9 -5=rLE93(j1jw-9 Tz=jJ)9=!hy%w-91-pXjP)uh2xoC;f9A2S!v4981:;[
a/ZWPl$_#+HIX(a4D=:)X:Z>#$!n3;[S#(:[X/HO0$%KX*$x8
_%wG/GsGw-912842F'k>2Y73w'wG/h#9w-9 2x42F!=-2Y7jq
$K8!X4\Y:)X:$0cd[W[p$_#pH[XzHO0#+\X*$j#$!n>2Y73q
$-8![7Qw(9>7As#(:/X;HOZ;:)X:Zh;W[wGuv7Qw(e1+)[
a/!n0 $_#+H/*+$#cd%9A277*V7*p!t7Qw36
:Aa9TW-9 -S$Y)*/ :$S2;09A27!;HE*\:7X#/Z-.2Y7jw%NpL$_#p9!1hP[
a/Zbi2Y73)*/ :$S%/:)XhT3J+w9>Lt7Qw(ej2[D#(:$BjT3Jp36
:Am1*t'bX*$x+h:\_/[+#(:! 2Gsd):)XhZ=#90W[2Y7-4Y
8[D D#(:UBt5<#Y0j_A<7Qw*/bH5Xrq
$47h$_#6(Eut7<-W.X L$_#pH:25PxyW.X%2Y7.+h//H77$299A2==+J#:z
$3RS):)X:Z=5,w94;77Qw#e1s70.+3/x4\13W-9\HzB<6([12\-3w-9\Jz=rP9!1H*[
a!%[X*$3;x#*\:7=#t;xX*$bJjHIX;J7QwCsf)SX8
_t=.7>mdw-9 2j#t#Ump2Y73w+m8;$_#hH'V(oxVp:=.7X7QwMe J00A+C2z
$8mC/:)XvZIR)$/1E$0kW-9/HpXj+(/x; 7Qw392\$_#py
8,\$_#+:x[dH1#(:[B+$%\v!-X*$j+4:=7zw4#(:[Z
$f9zw-9%-(i<6(/*2f9xk:)XhZI349!1hs7lkIN02Y73XMsjy50.+3uxzF9#(:[B:7h8
_!.7>/Dx;-91-pX-H(sx7F%HK;*-*$x+p:.0 $_#hHI1)T3J+e9#u,y#(:[Bt7<<6([u0
o*ZMZ%X*$=+3e2JjT3Jpm9[<v7Qw3e1H)7*F<9A2p!]4C9></7Qw(e1:7J8
_U.02Y7jXC$jy$.0KibX*$x+,cIF2[*zm<9A270.+3/xOF9XK:)X:Z=J,36
:IX9Xd<9A2p!]JWsxAF9Xd<9A250.+3/xOF9Xd<9A2p!-LM2xIXY#(:/BE0b8
_%.p2Y7jX(/ )$\L;:)X:Zbuh)9$//udw-91-;Br,:K#U,Y#(:[25P=JQ
$O#U,Y#(:/BhPE3W2-04Ay#(:/BE(IyW%.04Ay#(:'25P=JWU.04Ay#(:/Bj*j5Q
$x$/$_#+H/1h07S/,9A2p!j+((j+$%*f<dX*$x++([HE$%g8<dX*$x++(/ ts[
a22-04a7Qw(e1:p=-3:x></U2W-91-pX3uE9E'h9#(:UXfJ4DW-9U0
Z\T;9rX(6%#tuM02309)f9A20H8
_fo8Z$_#UH:25PxuWfo=F$_#pH/ (=<#mUw[2y7;x)*\:PI#mU5E2y7-x3[250[
aY9Y07w##(::Bj$-c R=8'$_#p:]=3g\g*.)X:$\TfuMP2Y7jq
$K=I>MDW-9%2hoG90%x*$x##Z-mdV7Qw(9G(W\t;:)X:L
Td#0o. $_#p:YPU>MDW-912:-t;8o. Y7jw;N='t\t;-910
o.<5uMP2Y73w'k[N/\t;-912j8\%<o. Y7jq
$x[d>7QwCix'w)<W-9j-)0.+((x'w)*W-9v-;<r)*/1e$%TOu9A29!3Hp*\:pe8
_9]03W)#(:UBE$Uc  9A2(!r)*/1e$,c  9A2*0.+((xl37Qw(6
:437Qw(9IL87Qw39CL87Qw39I4$_#+y
8C4$_#+:rcz$_#p:dcz$_#p:rcl$_#+y
8C437Qw(9IL[7Qw(9CL[7Qw(9I4[7Qw(6
:4,S#(:/Xl,,gW-912,u%/:)X:$Y%/:)XjZIVp9!1:*[
a;iKX*$=+I9!1:*74=:)X570.+(SXf61'2:)Xh$%TO;*_2Y75X>*\:pe8
_6X;:$_#6(E/:57WP:)X:Z$-U:4%2Y7.+h/ +$G;W-9\HzX-,>6
:]s-#(:[Bh*=-WI/x*$x#;6x12Y73X#(fH$Y9239A2p!v,W6
: <%-W-9\:z=5HM9pPjXxw-91-p$#;6x 4$_#h(/1:P7dy 'C2Y7jX3sfyl
Tdkr-x*$x+3>S%S$\c 69A2p7*9!=-2Y7.+h/%+)=#Y0j_l$_#6#Euv90.+((Z
$v+ST(9A2==++>*\:7X#;6x$h$_#pH[Ht$,*)(9A2)!Y+E:25pXYwf]2/$_#6cEJYPI<6(/H0
o)LW-9 -50.+($xza1s):)XjZER)$/%:$#D)29A2;!-i981H(7\kO9A270A+C/z
$6/C :)X:$SDK%9A2p7G;<k32Y7jw%%0av7Qw>e*J90.+3/z
$[4Sw-912<m:[:)X5P!Jhm2/h$U9vTjX*$3Jx([V26+t[t9A2p!j+>( e9[
a T5>'w8#(:/BS(7<2'/x*$x++#(uY$0s$[9A2=X+P3iUe$+:f:)X57!33e' 0
orJW-9 :*7*!(9A2=X+HMs J$r[W-9 -Seru9!1Hp7*!'9A2=e+Jp*\:7B8
_r-x*$=+je2V(=x3l:]4/$_#pH[V(=x-+:0>2Y7.3h/U(=X3P:]4A$_#63E v)$<6([ 0
o0$W-9 2<9[2:)Xh)by+(9=:$_#pH'J+(7[D<9A2p!-JM$*0
o13W-91-7BUL:5%2Y7jX(2vy$-JW-9/-7eji9!1:(70P:)XjZh3j9!1:9[
a\9x=2Y7.+h/ +7<#=.*7;$_#6(E1:7j5p39$]t%[w-91-pXrJM(x ,O#(:! -5><6(/H0
oYXf:)X57!54c*\:P>#t%rm2Y73X(/v26yCFfk 2Y7jX3(fs9B#toW3l[b#(:[B+*hy,9!1:9[
atoW3l[-#(:/B:P<#;;M4'$_#p:]-;a7Qw(9p(3%[w-91-pXv33:z
$3y<= 5x*$j+h#225PxuW2B>/t=#(:S2$PxyW2B>/tB#(:[25PxyWt]6D\%#(:/Z
$6yC2<9A2==+up*\:5X#toW7UV7Qw(9$ h%z=:)X:$8Z*:)X1.8Z*2C[UNx+jX6
:3V9XW-9U:S!54:YPU,\c :)Xj0!33:YP4>4\W-9 Vp7'kIo8Z$_#pe/Z
$68xD:)XvT3Jpc9$3,-#(:!1-)b],w9C3$_#+H(H:(7[=2F=:$_#UHUFY0$<6(/*0
o1%ta5 2Y7jw[*7;p7Qw3(by0Hvw'N8 37Qw3ef:(i<6(/*2,12#ORx*$<+I#225PxyQ
$-g7V,#(:2BS0<y)$/1E$S2#orX*$jypH:V2toC;f9A2=i+uW$%0
oS2K09A27!vLM*\:7X#/Z%.2Y73X>sU(=X3+:Kg/w7Qw(9>!v,#(:S25P=3Q
$KgU37QwE*\:7=#/FKX*$=<6(/*2[,<w-91-97G[:)XtZ=<6([ 0
oSw$2]=U$_#+H2Xp -gY:)X5P!y4:5> T7Qw3e1y$\T#+9A27H+u>6
:zwd:W-9%-(>rw6m_\[+#(:/Bh5=RQ
$47h$_#6(Eu)Ph#\ [i2Y7.Ph:/et3j+E9,'57Qw*/b:)=3wrX22Y7.Ph:1sl
T$$39A2;!ji3*\:7X#![[X*$3-xw(J(=x3l:0>h$_#6mEF(=x3p:]6'$_#63$1-7[
a$ 9A25evi(6
:\8Mc90%X*$=#2+M8OwY#(:[Xzw4[W-9j-7>Y)$//:$#T#[9A27!r)$/%+l
T\V!kx*$>+jP*::PE#)u9A2)=j+(/1:$1:W-9 2tD#(:[Z
$MD#(:/X'8Mc$:)XhZ<#2+M8/$_#3HIXzJ#T#:)XhL
Tlk<9A27!UiC*\:pi#8<d02Y7U)*/ s$*ZMZbX*$I<6([/28*zw-91-;e5LY
88<j/z[I%A2p!j+C[*H$4L2ab6(<_#+H[X</Y#(:IB:;E<6(/H2f9x;:)X+ZIuj9!1h)[
a8<dg $_#4H$*tT3Jp>9[<v7Qw(efe9>##,x;  UD(:/B:Pb3j398<j/d59\A2p!3q
$]3U$_#+H2*+)7G8<9A2p!j+3:xOF9#(:/B)9>5W2-04/7Qw(ejV([
a/,bcU$_#p9!1hP7K8<D02Y7jX(/1s0J5w2-04A9#(:/BE$SLKin02Y7;)*/ :l
TK8<DGu$_#+H$ j(7*FO9A2p!5Jp:xAFY#(:/B:P=VWU.p2Y7jXM2hyl
T*F<Dp2Y7jX)s*2[*zmO9A270.+3/xOF9X;:)X:ZxJ+>IuY$.0KinP2Y7jX#6
:AF9Xdo9A2S0.+3/xOF9Xdo9A2p!UPC$x'6-#(:/B:P=5W k#2Y7jX(/1e0[
a22-04$_#+H/1:77S/,BC2Y7rXWi25pXrw ]3u,o#(:/B:Px3W k#u,o#(:/B:P=V3y
8E'h9#(:UXfJ4DW-9U0
Z\T;9rXZj192:=md/7%)6*I2Y7riY
8Ioh##(:/BST3J+)9IoG)#(:/BS)=<6)9Coh##(:/B+T3J+)9CoG)#(:'Bh70.+(IZ
$<0'k!m[2Y7vXC9378R\# 9A277*$;5MadgQw(9MDx\t;:)X:L
TG$2o. $_#U:WgA>MDW-912ho090%x*$x#d9MmdV7Qw(6
: HMkvo9A277';<o. $_#+:Y3dV2kvo)X:$82$ *mdV_#+y
8$(:\t;:)Xh$1g 4bmdV_#+:x6z_9kvo)X:L
TS 0ox*$bRW mE($_#r)E%(=xJ,$'BtT33+=U9UHOk$q=7)sM4S77X'w)*W-9Y+z>-)*/1eOB+J9! :-J,k!NM;.#S3MmEg']#203M2y75x([25Px]Q
$*$U:M4W-9U-;7x#+Xx*$]X#+xDzJj;S77XlH#sW-9Y)zJ-)*/1V=X++C*\y-J,k!NM;.#S3McE1$,%W-910
oU%W-9123,\w-9 2,,\w-9 23u#(:/Z
$,u#(:/Xl,##(:[X4,##(:[Xl,,#(:/Z
$,u%w-9123,Gw-912,,Gw-9123uGw-910
oUX/:)X:$,X=%9A2p7xmfkx*$x#;FKX*$]-xw$H(=xJl*%Pl[6\2mUDfk[
a;iKX*$=+4P*\:P>#O256'$_#p:X.F:0:w-9yYZb<6(/F$5!u)*[1WsfZ#ZO=G8%;303Dfk7D=%Wg2y7JQ
$3i2Y7.P9!1:*[
aY f12Y77y F1g8%;3Q3Y2m=#(:/byp<]w.'X*$].+h//$vg-s+XU).)7w.ux*$]w3q=7)s64ry
8,)x7Qw3*\:5X#M(9A27!]+3*\:pi#;6x12Y776(e1:5JrP$%pPjX/  uUg']#;6X 2y7Jx([%t9[
a;6x%2Y776(eUs5Td;6X%g8%;3Q3Y2V+s+i9a2k3Jx([*j9tD;6x14.#s3mCe1$y923Dx*$i-3W/x <%-m:)x5p!jPp$ 0
oYZ![9A2p!3J)[xOH#9W-91-7<U4:\.\ ,#(:[Bj70.+(SX <%*+:)XEZIy49!1h7[
a;6x$h$_#6cE%+T3Jp(9IitX#(:(BY)b<6([%23.<F:)X57!;he*\:7x#O,9A27!-)*/1Tl
T\D'X22Y7jw+%2i$_#IHI/Ss<34981h(7\kO9A270A+C/xID4\W-91-SHvPp[/Hl
TG;<kx*$x#/ob>/$_#+:KPU[Y#(::Bt5$<6([12[4Sw-910
o+T[T9A2=X+Pp9[\GsSV;9A2p!]3Msx(J1JW-91-p<]LE92'G-#(:!1-Pb;4y
8-\x7Qw*[b:p$-H:012Y7$+Q=7)S64w2012Y77,h[ st3j+p8pi\X/  uUg']#!'9A27!]Pp*\:SX8
_20=2Y7.Hhu25p=3wr-x*$=+j)*\:7>#tR-X*$3Rxw*\:5=#!%9A20!;)*/ Hl
T*!%9A2=i+33*\:7B#)R9A27!5J:\0;J7Qwx[jeSXj632f)p5;<<wGoG6\2MudFK7*Y<572y77pP/H$V.9K'xDzJj;S77Z
$GX#(:/B+$12K:)X:ZbVU:]=!/7Qw(e1H*Xrw'[x*$x8
_''x*$x+3w93:$_#p9!1hP70P:)XjZIR49!1:07W) 5x*$3Jx([Ht)[
a=.*7;$_#+H/1S9I]W242'G7Qw(e1:SXj3:%c!$_#6PE%S00.+((X ,-#(:! -7hR)*/1vL
T*/fox*$x+I3[H26yCFfk 2Y7jw2%8/3s-w-9126yCFfk32Y7jX(/v0
oY'vRxX*$x+4)9$PGo#(:/X T,s$:)X:ZxJ4#UXlV0%2'9A2p!j+)6
:4V0%2'9A2p!jP:]0AX03W-9h(OXjL:]0AX0-W-9 (=XjL:j$3wrsW-910
o.D# bX*$33)*/%:$.D# bP2Y7jw2%8'/,#(:/X3//#(:76UD6\2mUDfk[
a5obc2Y]ri>e $0HE35B8!>1/  uUg']#5<dX*$b5pHSHS9>#5odX*$b5pHSHS9>#5obcOH##(:[J0
o8DMuW[2Y73L(96u,\C :)Xh*x#t;dg2Y7jX(:xI:U0W-91-pH-Hp6
:4:7Qw39=L6/[+:)XSZx54w'25PxuW'R$>G=#(:[Bj7<yl:-2'gx#(:[*-7xuhy
8=!hy%w-9 -;=3)*/ :$-2#orX*$j+pP[2$Px]W%N8 37Qw(ev2toC;f9A2p!Yq
$58!X1g/:)Xh$-cd[5>A$_#+:K8!X1g/:)X:$#cd[5>A$_#py
8=7A-C 69A2770#z-8Z<7Qw(9>7A-C 69A2p7<#z-8Z<7Qw3e 0
o#cd[W[p$_#3:58![7Qw3937As#(:/XAHOgW-910
o1cd<%X*$x+Im937A9dw-91-p<vw%wGuv7Qw(e1T07\#zkx*$=8
_2mE(vo<w-9 0
oS2K09A2Ks2k0c['SJ/ox9>!VM#(:7>!/m/  uUg']#/Z-.2Y7jw%NpL$_#p9!1hP[
a/Zbi2Y73)*/ :$S%/:)XhT3J+w9>Lt7Qw(ej2[D#(:$BjT3Jp36
:Am1*t'bX*$x+h:\_/[+#(:! 2Gsd):)XhZ=#90W[2Y7-4Y
8[D D#(:UBt5<#Y0j_A<7Qw*/bH5Xrq
$47h$_#6(Eu:)7W23Rx*$=+I9!1:*7W2C9A2=X++>[ 2\%<w-9\Hzerq
$r4'T7Qw(e Vp<#!'[X*$E++>[25P=JWI0=H$_#63E%(=x3+:03h$_#6cE +70.+3SZ
$\s3w-9\)ze<6([ 268Sw-9 ep!;w'Xx*$<u3>/Z
$ #t#Ump2Y73w =.7>mdw-9 28mC$:)XYZbR)$//h$#T#[9A2S!3up*::5$8
_+m8a$_#lH$V(oxJ,:*m2Y7vP(/1:pX#$T9A277<[:)XhL
TW[:)X:$%\v!5X*$=+4:x[dH-#(:UB+$#s 0WX*$=8
_,B02Y7;X)2hHt3j+W9#u,9#(:'B+PE])*/ )$*ZMZbX*$b+4((F(=x33:=#u$_#Ph/*e;[
a8<%X*$j+h)S (=xJj:.04V7QwCev:;e<6([U2f9xDO9A25!r+#(25p=;w+.P2y73x($FEL
TC8 F0\,yQw(e1:5$jL:W#'D9')6)X:Z=8
_2-02Y7jX#i%2[*zw-9Yaf9/  uUg']#9,bX*$x+Uw2J26-zm<9A2p!]up(z
$[*zm<9A2KslkIBdZjJ;s77xOF9XK:)X:Z=J,39$//u2k:)X:ZEuje9></u2k:)X1[*ZMZbDzJj;S77Z
$>*zmzBx*$x+UeUJ26-dw-91-;<-w%.p2Y77/,BdZjJ;s77xOFY#(:/Bj($5Q
$]3U,Y#(:/BE5<]W%.04v7Qwxk#u,9/  uUg']#9,bc $_#+H[1E77*F<DG $_#+H(*t*[
a/,bc!V7Qwxk#u,ozs+XU).)7wu.04aY#(:/bJ*J5w ]32y7Jx(/ +$%G8:)x:zXj+E6
:'6-ZM:)X:ZxJpe(X'[*ZM:)X:ZxJ+>IX'6-ZMZ9A2p!j+([%)$%g8<dg2Y7jX(/1+9>8
_7X8u$_#3H(Hh5742!%X*$J+,E[%0
Z\T;9rX(8%[y 9[Ow9#=9\2L$_#4>6
:l>4\W-91-)0.+(2xl>14W-91-)H3)*2x4>4\W-91-00.+(2x4>14W-9%-7=<6(/v0
o+<5<W.z$_#IH'X/H#$ !xX*$=#t'Y=O[/w(:/XOw-kvo9A2p[
a/']mdV7QwC98![\t;:)X:$42fuMP2Y7jwz*.oWy#(:/Z
$v4t90%x*$=#5obmdV7Qw(96/Wyp90%A2p7'D'X2oWyQw(6
:IT8kvo9A277[/+>0oWyQw(9738az90%A2p[
a2+Mm2Y7-4:x.fT7Qwx2bJt3j+#8%-(0.P(qU[/429'c['SJtoQ3Y2jm4T:)X10!yU9!1:;t-xw*\hP5;<<WgOg6\2mU.f.)7W MeO$_#Hh/ (=Xj,Y
82i/8to:)X)ZE#M!=72Y77m!=7g8%;3Q3Y234\2:)X1s!;U9!1:*3Jx('2595;<<WgOg6\2mUDfk7%=:)X:L
Tx=:)X:$,% :)Xh$U% :)Xh$,XW-910
oUXW-9123u\w-9 2,u\w-9 23u%w-910
oUX=:)X:$,%/:)X:$U%/:)X:$,X/:)X:L
Txm%9A2p7%mfkx*$x#Mir>2Y7jwOR>2Y77uh$*Vt3j+E!p 3s/  uUg']8
_OD>2Y73Xpi25pXYw7]=3j7Qw397d'8<[:)x19!-)*/1eOB+J9! :-J,k!NM;.#S3MmEg']#;fk8!$_#+Y
8EL$_#63*\:P>8
_6X;:$_#r6x;:.#s3mCe1$g3w-91-9xR,:4%2y776(E1SoYwUq=7)s64r:4u2Y77\Mc['SJ/ox6
:]s-#(:[25PbJWI/x*$=+,([25PxuWO\7:$_#r*/B:Pb;438P <%JS+xu).)7Wo\7h$_#+h/ J($8
_O\7J$_#r*/B))ba;o\7j.#s3mCe1$y92(Dx*$].+h/ T5$A;O\7:,6\2MudFK7DY [c2y7uUm$12V+sUi9a2=x++3I*hL
Tdkr-x*$x+pw2 2>4\y:)X:Z=RjP9-D D%w-9 -5=<6(/h2v+ST(9A2;!ULp*\:7=8
_O\7i77Qw*'bJ00.+3/xl60JW-9f-9H-)*/ J$,*)[9A2==+3)s25p=jw7.x*$=+U9!1:([
a Z57($_#+:=P(67Qw>evs)JrPp*::7i# <%X*$=<_('126/C :)X:ZjVI3I S7[
a/ob>2Y7jw%%0ax7Qw(9> /sdw-9/-(B5)*/ :$Sc2:)X:L
T9VtJx*$3Jx3IXz 1g20YX*$x+,mUH2t%[+:)X:ZxR,eSX(J10W-9\:zX-3p6
:p -#(:! -Px5U)94:$_#!(C['sj/O:]4:$_#,H[ ST3J+P94;$_#pH( +T3J3(6
:I\1#(:!J-s0.+3[XMX7Qw3e*yt3jPE9$mx7Qw*ibTt3ju394a$_#4HU25P=3Q
$]4A$_#6wEuhT3Jpc92m$_#pH2*2<9[2:)X17$]3(/\h9E;+=U9UHOk$q=7)s64r:]-uG%#(:7 +p>A;2\0;j6\2MudFK[
a$(9A2p!rw'N02Y7jXC:%2612k:)X:Zx3l(IX;77Qw(6
:;57Qw(eUT$-JW-9 (=X3+:- 2Y7-XWiv(=Xj4:42'g7Qw*/b:7>UiY
8I]t%[w-91-pXvHW(xIm0s$:)X:ZxJ3(/u2vu2w-9\+zBv49!1:;7dm[9A2==+P>i25pXYq
$]>l>7Qw(e/H7>#toW3l[=#(:/XIV40=%'X*$x#toW3l[-#(:/B:P<8
_Oy.mj7Qw(evy$.9$Z9A2p7d)fX=2Y7jX(/veS7%;9R7;$_#+H/1YL
Tx;9R7;$_#+H/ 269GF9[x*$><_(/H269GF9'x*$=<6(/H2 .'VrXx*$x8
_2%8'/7Qw*[25pBjw2%8'/y#(:/XIV4sKF9A2p7'kA9A2K6'kA=dZ/FjXW7z
$:yzm:)y+)h+p$I/WsfZ#ZO=G8%;3q3y2:9xw-9%y7!YL>2h2:yxw-9%y7!YL>2h2:yzmUw[2Y73HY
86 ,\C :)Xh*x#5<dm787Qw3s1268xD:)X:ZxVW2yC/$_#+H//j9<8
_Iyx*$=#$F];;P7Qw>e1y0i-)*/1T$1%ta5 2Y73XC[vV*70) 512Y73Jh[1T9[
a$ZWPl$_#pH( hT3Jp(93!hy%w-9U-7<3)$/1e$S2#orX*$x+4:*g7V,#(:/BvL
T[#z-=a[7Qw3937A-[/%9A2p7G#z-=a[7Qw(9[7A-[/%9A27[
a$!n378+#(:[X/HO0#+\X*$x#/!n378+#(:/X(HO0#+\X*$=+py
8[7A-C 69A2S7[#zkx*$=#f!n>2Y7jw%wGa$_#+y
8=7A9dw-91-)J#f!n0 $_#+H/VS$Scd<%X*$x++wIXzHOgW-9 0
o.TO9%g($_#py
8>!/m#(:7>!/M/  UuG']#/z%.2y77/Zb.G8%;3q3y2[o0V:)X:$S2;F9A270.+3/z
$[oz=:)XhT3Jp(9>L[7Qw3*\:pi#/F*X*$x+h:K_2Y7UXC*\:7=8
_%4=i61zw-91-979[[k-2Y7.P:5> T7Qw3e 2>mC :)Xj0[
a 0j_2Y7;XW'v2<m:[%\x*$3Jx3'1+L
TW239A2=X+3(:x]J=%W-9 -)0.+(sx]Jb#(:!1-Ph3p:07($_#63EF+L
T%! *x*$x+pe/V2\13w-9f-pH3)*/ :$U$$39A2==+u9!1Hp7$F39A2=B+Pp[25p=Yq
$0>h$_#6mEF(=x3p:]6'$_#p#/B)$1sW-9vTSHjq
$j[dH\T;:)Xh$%\v!O. $_#p:=.7g7Qw)e%+tTji39[Dh-#(:UBh5<<_('J0
o#T#%9A2*!U4981:;7<9:)XS7xJ+(/12GD#(:[X( 7Qw36
:] 7Qw(97ZW4[w-9 -07S 0w32Y7;Xp9['8mCw-9 0
o*ZK:)X)Z$5l3*\:PI#8<d02Y7-Xp/fet3jPM9#u,ozw-9%-0X],9!1HS7\8<9a27!Jj#(Z
$f9dw-9U-9$YP9!1:(7lkI%x*$b+4((F(=x33:.04aY#(:'B+PE])*/ )$#l;:)xHzXU,#6
:7F%HKTdP*$x++('J:*7C8 F03t+Qw(e 0
o.0K:)X:ZERU:K#U$_#r%.0G8%;3q3y2>*zw-91-5i5H:]3U,9#(:/BE5<]Q
$K#U,9#(:7></UZS+xu).)7WU.04/7Qw(e :;=#t[bc!/7Qw(efT(>#/,bc!/7Qwxk#u,ozs+XU).)7q
$O#U,OZW-91-5>;H:]3 $_#+H(Vj$SL;:)X1[*ZS+xu).)7WU.p2Y7jXC$jyl
T*F<Dp2Y7jX#'ve$SLKi%X*$]g8<d0G8%;3q3y2>*zmO9A2p!3+#[xIX9Xdo9A2p!]JWsz
$[*zmz%x*$]g8<dgU.#s3mCe1$\lkINp2y7JxcSuY$%*F:)x:zXjPp97AF7qW(E1:P>8
_ ]3u,7Qw(e1:7>]w k#u,7Qw(e1:pHrw ]3u,o#(:/B:Px3Um97af9xD:)X:ZxJ+P2H0
o)s#<9A2S!]L3'xFj4dw-9u-;>3Uy
eMDv0%w+%8d$y#=9\2l$_#py
8=3t1#(:[257b#T,9a270.h:X6( 7qWcIZ
$f9#(:UB+5b3)*/1t$*zm:)xHzir+M*\:7J##.9A20!]uM*::p<8
_!462Y7jw+9a27!JhP(Z
$:9#(:UBvPj3)*/1vL
TG8:)X1[*/ q3y26-#(:/by(7**29a2P!],y
8></u#(:7></U/ q3y0
odgK:)X:Z<#9,9a2P!;h:o#u,7qW(E 2 S#(:/b+l
TS2:)X:L
TS5<9A2p!jw k-2Y7jw7x82y7JxP9>'g7qW(E1:P>]Uy
8>'67Qw(e1:p=U3:*G2y73x3[X!g.3W-91-pXjJ('x!G.-w-9 hP>8
_ X7H$_#+:X7'57qW(97o77Qw(97O57qW(6
:'6-#(:[B)T3;W ];I$_#u9!U0
Z\T;9rXiv4two9I(<0%w-9 0
o1')'9A270.PC9$<$_#P9!j2J8<[:)xJ0[
a8<9A29!-33u25pXYw,bc2y7;)*/ S$4Ww-9J-Phu,981:0[
a#.YX*$x# :)x:ze]+p[z
$:9#(:UBE0j3)*/1vL
TG8:)X1[*/tq3y26-#(:/BY97**29A2p!],Y
8></u#(:7></U/tq3y0
odgK:)X:Z<#9,9a2P!;U:o#u,7qW(E 2 S#(:/b+l
TS2:)X:L
TS5<9A2p!j+:X>P$_#+:377$_#pH[XAJ1#(:/B:Pxy,P6
:AJ.#(:IBt00.4:*G2y73x3[X!g.3W-91-pXjJ('x!G.-w-9 hP>8
_ X7H$_#+:X7'57qW(97o77Qw(97O57qW(6
:'6-#(:[B+T3;W ];I$_#ih$25S[
+90%2l$Y*K+dX $,<Y9rah$%%)6Kah$%')T)%+L
T#8<)#u.#x)fRx</Uq8<dDz,0%=y
8xaf_G8Q=C(3,#9,)m<.#X)FrXIX_*fq=c(3,#/ 5aAJ1/ i*il$%*f-x$/.#X)FrZ
$$slkI)></u/ I*IL$\lkI)M</u/ I*IL$.hT-]3u,6\m9RI2[%*(%X$g8u<=f97id.QT ]dZ,0%=Y
e$;:1Kw<wGg8uQk!NM;l
!*$;5M2>*/ I*ILYX+3W:1);[
+t'Y=O$.0S+d2l3_Jx)2*:7$8
X256;>7G2'c[4t,%(3e Ht3;q
H]=3g\#22-Dz,0%=-'B:s0.3y
e$;:1KwU.04.#x)fRA:zJ;3Y
e$;:1Kw2-04.#x)fRA:zi8
X256;>7G22c[4t,%(3eUHt3vq
H]=3g\#t ]Dz,0%=-[Bv;0.3y
e$;:1Kw%.dZ,0%=Q=A:zBr)*uz
-61'$U9><.#x)fRd'Y=+H)2jTt3j4Y
e$;:1Kw%.04.#x)fRdZYB+J9! :l
!*$;5M2[*zmQ=C(3,/2-[bVt33PY
e$;:1Kw,BdZ,0%=-[bspi;L9!1Tl
!*$;5M2f9xs+D2L3_5X($257H8
X256;>[
aW%.Dz,0%=:)X1[*/ i*il.##6:b8!.#X<%.Dz,0%=qxy0
o7g8<dDz,0%=:)X1[*ZMq=c(3,/ :!XUHO/ iA></U/ i*il.%7Q
H]=3g\#fTC[G<.\t-[BE$-:S C-I8.q+H[u)s[
+t'Y=O$#:S+C-I8.qpH/1Y;7\[qxiG<.\t-/B:P$# TC7>.+* 2)1-Px5Q
H]=3g\# ;C[G<.\t-/BE;b# ;c7L.+* 2)1-p7\5QX;g<.\T-/b:p[
+t'Y=O$4Z8q=Dp6#*(XIBtT3yr:w0<.%/y2=$*K<++Cs%)t3]RY
e$;:1Kw!B#u,6\s6][iYJ+u)[Ust334Y
e$;:1Kw!B2<.#/y2=$*)!;43ijJ00.4:W0(F6sS6][Iyh+3P[VY5<<6)6
BIg8[9:W0AF6\S6][Iyj++P$1)(0.h:w0af6Ss6][iYJ++p$1)(0.JY
e$;:1Kw;*dZ.+* 2)h-0$3+#/j(==3w;*d'.+* 2)*-7Jvu>*\H5[
+t'Y=O$80S+C-I8.qpH:%+)=<6#96/.%/y2=$*p!3PE$h(=e8
X256;>7'FUc[g<.\T-ubs0ejJC*\Hp7'fuC7G<.\t-/Bj*>-4)*\hP[
+t'Y=O$8gS+C-I8.qpHIFE;$])*[12:S/2q\$z6_Jx3Uu)s0.p(6
BIg8[9:K#A.#/Y2=$*P!]+eS25s7g8%C7G<.\t-/B:9xRlw*\)L
!*$;5M2[*GkIc[g<.\T-/z
-61'$U9><t6\s6][iY=+uC/*:S0.3:k#(.%/y2=$*p!jL3uh(=J8
X256;>7G89BCg869T+]A:l
!*$;5M2hg:s+c-i8.QwMe1Tpe<LY
e$;:1Kw!46g869T+]AJzBUi3(2Tl
!*$;5M2h80s+c-i8.QLhsf+0XY)W6
BIg8[9:Ye T,XS+C-I8.q6(E1h\[
+t'Y=O$#X;9rcG869t+]a:\[
+KR->]J7Dt+]XA$-#)y
8x4t7QwMe%0
o7%):)X)Zb8
_:D32Y7rX>6
:23-#(:IBSL
T#; *Mi$_#+Y
e$;:1Kq
$9D4T7qWXd2[.G7Q
$9DlT7qWXr2[.G7Q
$9D4X7qWXd3[.G7Q
$9DlX7qWXr3[.G7Q
$9=3T1<W-7TG,0.57%2l,6\S6][I4f)SF*\3'Y<=iC[G<.\tBQD]-6wry
8xgG8<$99a1g8<$9AD]N6wry
8x;:0[F:)Y=.u06+Dp(3u/ Q\$Z6c,BQR358ud)fDdZ.+* 2;lgM5/\x6
:2.1')'-X*K1')'-9gMF/\x6
:26*<579a15f)Si*:G30.bcA6fV0%Mq=Dp6#*.BQD]k[
aWq]#(:)#(x]#(:),s.7z
$$.lF:)YJnk/m[8dLx3)u5=C t,xs+c-i8.f.=c,1l
T#s2.32y]*8[AD]k[
aW[jDp6#*W-73\.#/Y2=$2o7)fTC7G<.\t5b8!.-:.X6
:28d/Y2=$2y]\[q=Dp6#*W$9Tz 6s*q\$z6fZ#ZC[\4]8
_:=6g<.\T:)YZ:6\s6][i$T#B+yd'd69T+]9uho/ t;Y0
o7cKq\$z67qrLv8UF6\S6][I$T#B!B#gj69T+]9uho/#<;]2n7/$;*=(47Awlw0</u/ Q\$Z67,wQ]#(:)fRY
8x7/0/y2=$*KkCk9.dZ.+* 29:2r4z),c7g<.\T5B8!.4z)b;x[$6[59521l
T##<kdP6#*(xV8u[*/ Q\$Z67Awlw0af6Ss6][in9CDQw0a4c#<:c=3t10RY
8x3t69T+]x*Kk')Q=dP6#*w$9T3T6sS6][IN9cdqY2K47eWq56(g07Q
$96/.+* 29a1R80S+C-I8.#_:V6/.%/y2=$[/42s;-]k$5#s'y2;t]8
_:y3o.+* 2)Y=:-Ks+c-i8.#_:V6/>6Ss6][in9CDQy3o4c#':c=3t1<RY
8x3[69T+]x*Kk'/Q=dP6#*w$9T3[6sS6][IN9cdqY>K47eWq56(g07Q
$983X69t+]a1.1')'*X[$4'fq=Dp6#*ry
8xafs/y2=$*Kk/$;*=/$F#B%.>g869T+]x$$kG8%c7g<.\T5B8!.sl/b;]2O7)/,k04.#/y2=$2n7/T,-]1l
T#/,*dP6#*(xVd;:0[):ax=[*<s+c-i8.#_:V><t6Ss6][in9CDQk#(4cfw$9taf0zmQ=dP6#*w59dif0'ob7z
$$4W[Q\$Z6_7s'y2;t7,w!4_g869T+]Y0
o7c\;C-I8.qrq56(g0#<:W,3.#/Y2=$1L
T#2tc-i8.QR3*\Hp]8
_:X6g<.\T-/z
->md)f9-i8.#T+]z
$309)f9A277s=9\X*$X#2F*-A$_#py
80mx9#(:[X7/7qW!bDp6#*W[Jx*$-:S6][IL
T\[:)Xz 69t+]XPGD#(:$*-;$5u:W,\$_##.jDp6#*Q
$W0($_##<*Dp6#*W+*X*$B#f;9A2p!;q
$=62Y7\5Q\$Z679$;9a29<+p#U*2hg'w-98]:69T+]z
$h9Gw-98u[69T+]xZ[7qW3E1jPh]W;-x*$80S6][IL
TC5[9A2h80s6][i$809:)x3x\/y2=$2:0#(:Y2G<.\ty
86a$_#5%C-I8.#o wx*$B+4p92!$_#pH[*0
o)sf:)XhZjuj:5_2y73W.Jx*$x8
_ Jx*$=<63/XFjD#(:/x7Jd#(:/Z
$<%:w-9 (S7*2T9a2P7S5:)X':69t+]Z
$[*<w-9><t69T+]xPf0#(:/bT0>j4#sxOF0#(:/B)([
a[%9A2p!rw%.>2y7g8%C-I8.#Y,KX*$x+h#6
:OFS#(:/Bj07g8<9a2P798<9A2p!U4Y
8M</7Qw(ev2'SL/:)xH$#w[:)X:Z<8
_ w,\77Qw*ub+t3;w W,\57qW(977:-3w-9%-5$;J9!U0
o%c5['X*$h+ImUutT35W W,377qW(977M8-w-910
o%')39A2=B+3MuUst35w Y2j$_#4h2j:00.,:x6/77Qw>eUJ9>r)*iz
$j80u:)XSZ<33c'2597s5u[X*$=+L>[Uyt3Uw yMJ$_#6>E1h*jy)*IZ
$j8GP:)X:$%'/C9a2P7G299A2(!r)*:z
$[%Gw-9*-S0.i:k7u$_#+:x-<T7Qw3eU(=J8
_ \#a$_#pHS25s7sY,bX*$X#2;*_2Y7-4:x[\7_.4H21:T3RQ
;[XA$-#p9!V0
_7gW[922<.\t:%7(>.q; *mIL
!< OBx 6#*q
Hb4/[GsW7%$z67gW[920
o7X):)X)Zb$Q
$9i($_#3H'40
o7Xf:)X+Zh$Q
$9i/$_#4H:40
o7D29O$2y7JQ
H]=3g\8
_:cC($_#RI*Y0
o7/=99a2k,<ry
8xg,-#(:7C/K[
aWqr32y77=[7Z
$$1')'*x*Kk/m9!6Fv0%mQ=dP6#*.5VdLt3'oO*I4.#/y2=$kK[
aWq56(g0#(x56(G07q
$9=3T10W-7TG,-. i%2l,6\S6][I4f)SF-\z,Y<=iC[G<.\tB7Z
$$6[59532y][59531L
T#T,*6F$_7u5Vd4tT/=9!tJn84;9RCg869T+]]kK[
aWq]#(:)#(x]#(:)7q
$9$<X7qrcATG,-aSF-\=5f\Mo*i4.#/Y2=$K4]8
_:c$<x7qr2.31L
T#Ftc-i8.#(x-_g869T+]x$$k0[QXdP6#*<<wGgxDfRY
8xZ 69T+]x*K#:s+c-i8.#_:V[\.%hs6][in9CDQ=_kK[
aW+YDp6#*W-7[3.#/Y2=$2o7) ;C7>.+* 2A07a6\[B7Z
$$4zs6][i$_7Blw0<.#/y2=$2o7)#<.D'.+* 2A07a6cKB;X[$6[5952K$t#b!b#U,6\S6][I$f#S2.23'C7Q
$98UT69t+]a1R4Z),C[G<.\t:8X=H9<8qxDp6#*<<WgGH9<.B992.1')'*y0
o7cK%C-I8.qrLW0AF6\S6][I$t#b!b><.%/Y2=$[/42S!b>K47,Wq56(g-7Q
$96(.+* 29a1R8<S+C-I8.#_:V6(.%/y2=$[/42s;*]k$5#s'y2;t]8
_:y3g<.\T:)Y=:-/ Q\$Z67aWLY3GJ69t+]9UHO/5[;]2-7/$;*=(k[
aW;-mG<.\t-7T3X\/ q\$z67aWLY3O.%/Y2=$[/42S;-mK47eWq56(g07Q
$96A.+* 29a1R8gS+C-I8.#_:V6a.%/y2=$[/42s;k]k$5#s'y2;t]8
_:w6/.+* 2)YgG8<$9992h80s+c-i8.7q
$9><[69t+]a1R6[59532N7)/,KDz.+* 29:2RSL/qxDp6#*<<WgG[*g.B;X$$Kg8%bcG869t+]X[$6*8[;y0
o7g89C-I8.qrLC=3T1<W59TAF0/ q\$z67aWLK#(.%/Y2=$[/42S%.2K4C#_:v><T9XS+C-I8.#<:C$<T84.X6
:2HG:S6][Iy]/$;*=($f##.jDz.+* 27Z
$$4W5Q\$Z6_7s'y2;t7,w!46g869T+]Y0
o7s[q\$z6_7p9! :k[
aW YDp6#*((6
BOwY<=:\$z67* 26
:lT+<=:)Xh$%%)69a2P7S=9\>2Y73q
$b4//7Qw398U$_##<c-i8.#fT9A2xD/y2=$0
o#:W-9[\.+* 29-; 7qWw$BE9$-W!4_2Y7C\tc-i8.8
_!B22Y7Ck9c-i8.# 99a25705:)X:Zj8
_+yx*$#'S6][I$+[5:)xy0!3,M$x7m8#(:W,3.+* 26
:7/S#(:W0A.+* 29[A$_#Ph/%:)e#5[9A2:-/y2=$0
o4'f:)X7:-/Y2=$2:-kW-96/>69t+]X3T7Qw;*dP6#*q
$Y>2Y7'/Q\$Z6742!9a25!R4:*G2y73x3$Z
$'%0w-9 -SiUw'jX*$=#\T9A2p[
a2T9A270.P(9e' 7qW(98' 7Qw(6
:pJd#(:[2)$.S[:)x:$%'W-973.+* 26
:AF0#(:K#(.+* 29-<T7qW(E*+*xR,e9M<t7Qw(eUTl
T:/:)X:Z<#/,kx*$sl/Q\$Z6798%9A2p!5,Y
8M<[7Qw(e%+$slk:)x:$+LK:)X:ZIRQ
$O#U$_#+HIXF[*Gw-9 28g:w-91-0[
a2!4_h$_#6mEV(=j#2!4_J$_#+:x83X=#(:'Bj9ju)*UZ
$j4'FC9A2)!v3Mu*(=$#2!46H$_#+:x8]:b#(:/Z
$j8<P:)X55!;3mU/(=$#2;*%2y7Rx)21+T3]W y3H$_#IHU%Y*<<6P6
:':--W-9/-0=;uC*\y$%'939a27!yI3UJ(=I#2;O%2Y7.ih/ VS><6p6
:':S3W-912J8gU:)x:$Ss):)XtZ<<6>6
:AJS#(:$B)T3VW%x02y7JW \#($_#pHU25s[
a26.>2Y73XE*\)$%98<9a2P7S59Jx*$bRW =_HY3rX)/250[
'p:KX/$=<6P6
N2[70W99-I8.#; *mIyYs)u]Z
-t#dk:3pi8.8
X<03aM%# %5$'W)#d'x228u%w<032,_3wf) 2>)qp:=E*77\d%M[*7[
aWiC[4T,%(XvmfNKX_(E%j4tJxw']1$,/ i*ily]) 7ATlox+IB81-0hFry
e$;:1Kwq4cIJ_3WQ4Iij_3wq4P*77/ozDx*$]4DIad]K[
+t'Y=O$6X(Xd9GmU*25C,$.YXt AD]V]#SF)ylN6w=2x9Gmt/;F]7[.GDry
oEH$#x=:N='t4# IRxZ,,# %5$J0+#m-7d4K7%(xcI1$1d(3*\Jp7[k-[255X#TO) (=Bjw2BAHt3-+:oA1>), 77z
 '=#kr-xz,,# ib4/$1')')yGmf/\5vTlox+4BA[fNKX_(EVKN\4_iC[4T,%<FC[4T,%.X9$<y]/\5'9=,6\M9ri$36\M9riKk[
'd'x22A1S):n='T4#RQy0iEF)s7NC$r6x'lu9ZAst b;]wr#4<+N>D8F)sf!dFA,f.==E1l
80w<0328u%w3*:el
!< OBxz[1*203Z
-/R0/.XxF8s[T mE2V72$ *xz,,#kr-x4y=$WF) M$\4(39[fy=# zk.ZY=8
_:DdZ,0%=-7to'F)m$/bJ50.Hb81-(B<6);Y236\m9RI*Kk\o5VI$p!v)*2]$p!ri9!jkK[
+t'Y=O$6Wm2XAH$6w=2xah$6W;-[xG'OXW-9yfaU,S.7Z
-61'$U9d4Y]x<Q4Cij]#sf)YLn6W=2XY0
:x#;:=c(37JQ
u3 28U%WZ57(H7\MF9[437\/']%+<7X(XCc1$,qrqry2gYqp9!%:$1Z(3*\jP7*;-[255x#t<) (=bJWu)yO'f\OX6
Pf77Z![9[437\m<032G8<$-7t=3TjXp*\y4F\o5VC$p!r)*2][>)AmQ=C(3,,=Q=C(3,fR:]#*KB,BIc[4t,%_fc[4t,%.x6
6!g%<Wz57($O[29WX1.8zT8atg'ox_lcCwrJ, zk.Z4cf'l=E[8oGV+atg33/ozR]k-#4RY
y32/R0w+DI270A,Y
e2Zv9#O+K=IJM4Q
Hb4/[GsW+K=I>M4So*i(J0#D'X228U%W<032,_3WF) 2>)qp:=E*77\d%M[*7[
aWiC[4T,%(XvmfNKX_(E +4tJxw(]1$,/ i*ily]) 7ATlox+IB81-0hFry
e$;:1Kwq4cIJ_3WQ4Iij_3wq4P*77/ozDx*$]4DIad]K[
+t'Y=O$6X(Xd9GmU*25C,$.YXt AD]V]#SF)ylN6w=2x9Gmt/;F]7[.GDry
oEH$#x=:N='t4# IRxZ,,# %5$H0+#m-7d4K7%(xcI1$1d(3*\Jp7[k-[255X#TO) (=Bjw2BAHt3-+:oA1>), 77z
 '=#kr-xz,,# ib4/$1')')yGmf/\5vTlox+4BA[fNKX_(EVKN\4_iC[4T,%<FC[4T,%.X9$<y]/\5'9=,6\M9ri$36\M9riKk[
'd'x22A1S):n='T4#RQy0iEF)s7NC$r6x'lu9ZAst b;]wr#4<+N>D8F)sf!dFA,f.==E1l
80w<0328u%w3*:el
!< OBxz[1*903D T,<296
BOwY<=:=cU\-#;:r2pT,qp:xi(<Sqp:x6( _-4y
8x</_lkQ=C(3,#8<da</U/ i*ilL
T#/,)><.#x)fRxOF_k8q=c(3,#t[)$/.#X)FrXAJ1q/ 5Dz,0%=:x$/y%*fq=c(3,8
_:k#u,_G8<DdZ,0%=:o#u,_K8<DdZ,0%=:];iY.0kIc[4t,%w%X$*[%*s+D2L37STA]Aij./ I*ILl
!KVO*I28S[t3I--77*90BxlT+<=:)X+)[
a=uW[2Y73)*/j23\[o:)XvZ$3)*2X4>4\w-9 (=xJh:DM;'7qW3:Bj0=<6)6
:pT8Z#0=X*$h+U:-8z\#c2:)Xh$.[5'O>>m_#+:O./>MDW-910
oS[tuMP2Y7-w!N>oWy#(:[X7a-kvo9A2772)0o. $_#+y
8p7W\t;:)Xh$8DKuMP2Y7jw;-. E\t;-912:o[29o. Y7jq
$]23>MDW-9 2Gs\%<o. Y7jw y[N/\t;-910
o%\vu9A25<#20322Y7-Xpi/(=Xj,:x.f67Qwx'bT5J<6(/f$v%to2c[aG.3467x'w)kW-9%-0<<6(/f0
o0*K;Me2Y7;X#9C78%#(:! -7hV)*/1E$,c  9A2)!j+>*\:pe#=F9A2p[
a;iKX*$x<6(/H2',#(:!u-P0.+(SXf61'2:)Xh$y%/:)x:t3j+E6
:pJ/JW-9Y57!5i$%-'dX/ %5$H0+7w.[X*$X+L(if2mb#(:/x]S7qW*[BSL
TW3[9A2S!-i:d12Y73X>$ (=XjJ:%-'P7QwpeUe57dy [x*$x+I#$Z
$v+Su:)X5P!3h)UX <%JM:)X:Zj;he9pPj=xw-9fs(ij+:%-'5U#(:/B)9h5Q
$%0MX7Qw(e%s*$#9!=-2Y7jw2o8Z<7Qw*/b:5<vP:\.\ ,#(:!V-50.+((Z
$v+ST(9A2==<6([12v+ST39A27!3LW9IitX#(:[B+7<<6(/H23.<F:)X5s!-hP*\:P>8
_7.x*$=+U9!1:(7\D'X22Y7YXW(v(OX3L:=P(67Qw3e +00A+3$xz/Y#(:[2$PbJQ
$];787Qw*[25p=jw%%0a$_#+:KPU[-#(:/XAV9g;:)XSZI-h9!1hP[
a/!xX*$x#Y0j_2Y7.+h//e0=3J>9[\GsSV;9A2p!Uw9X=:$_#+H[1t;E54y
82'G-#(:!1-P>y,)9-\x7Qw*/beSB-wr/x*$=3IH(FE5=#!'9A27!j+C(hHt3j+#6
:MX7QwEe s;B-3)*\:7e#!%9A2=J++([ V7=<6([ 2Tr#(:[xP/1Sw-9 h0$J+y
8=:$_#+HSH+5j5p)9=!/7Qw(e y7i#$39A2p!3uWsx;57Qw(e1y0$8
_[/x*$h+p#/uvT3J+w93H$_#UH: Y;$<6(/J2M0S$:)X5P!JpP[V23g<2'9A2=X++(u J;[
a/Zb.2Y7j)*/ :$S2;09A2p0.+3/xAa-TW-912[od=:)X:T3Jp(6
:Aa9%W-91(=X3+:KiA$_#pHI25PxuW%R22Y7jXWu%2[D#(:SB)50.+3[Z
$[g[T2502Y7jXp//2<D0/69A2=X+Lp9=av0#(:/Bt)=]WUm8Z$_#pP6
:zwd:W-9%2<m:[%\x*$x8
_'R$>GXQwMe1:pXj)*[ 0
o7[=2f=hy7Jx(/1:P0a+(93(j1j(:ubVpXj+981:$12#ora25!V3wIF(=xyQ
$93!HY%(:[BE0x]4981E$s2#ORA20!j+(/1(=X3w9n8 3_#UHIJt;><6([Z
$$1CD%)xHzX]iMi25pB#f!n>*$=+3c:u:T3J3:k8![_#4hi*)*=<6('z
$$1CD<%A2;!54C/1(=X;w[WgUV_#,HS1:Px<6($Xahoz;-9v-0Xj+(*\:)[
aW'Wg/gSg(:[Bh7xJ+9!1j$-CD[5>aY73X#/1:p0.+M9>7a-[/%)XtZjy+(/25Pb8
_:=8!x1G/-9v-pXj+(*::p7[#Z-8z<_#pH( )5=<6('X/ho0#+\A25!j4W(U(=X;q
$9>7a-c 6)XhZh]le/25Pj#)!N378+QwCe1H5e;)*/U2842f!=-*$=++(/1:TtJ+y
8xZhoG(:[b:5H5H981:$#sv7)XhZxJ+(/2$Px#T!N> Y73X(/1:p0A+(6
:26M4)on2*$=++(/1:TtJ+:X.F:0:(:7U-pHj+(*\:;Td203$g8s[T3i-1l
!KVO*I28S[tcI--77*90BxlT+<=:)X+)[
a=uW[2Y73)*/1y$,k$79A2*!5P9!j2,\c :)xHt3j+)9CoG)#(:[/-5<3)*2Z
$<0'k!m[2Y7vXC9378R\# 9A277*$;5MadgQw(9MDx\t;:)X:L
TG$2o. $_#U:WgA>MDW-912ho090%x*$x#d9MmdV7Qw(6
: HMkvo9A277';<o. $_#+:Y3dV2kvo)X:$82$ *mdV_#+y
8$(:\t;:)Xh$1g 4bmdV_#+:x6z_9kvo)X:$y%/:)x:t3j+E6
:'8MkW-9%+$%TO99A20!Y4M*\:pe#203$2Y77Hh:hJt3j+#8p'W)*s+k=i5<9R:x.f>7Qw)e%sS0.+((z
$t.z503x*$j+,:d8zJ7Qw*[bH)H<6(/f234\2:)XSZxJI9!1:;7%=:)X:L
Tdm%9A2p0.+(sxf37Qw*[25pXYw7]=3j7Qw397D'8<[:)XYZ=u39!1:;[
aY f12Y776Cefe57A;6X;:.#G$2'vPK7WP:)XhZEJ3:4%2Y7jw.ux*$33x>6
:]s-#(:UBj)7x+:)XhZhup9!1:(7dy /x*$<+3#'X <%3W-91-)eUq
$%-'57Qw*/bH9$;wO\7:,7Qw(eU)9>#;6x 4$_#,>$*:P7dy 'C2Y7jXM2/yl
Tdkr-x*$x+U>SJ2>4\y:)X:$.k#+\X*$3Jx('VS779VtJI2Y7.4h'25pX]q
$%-'6x#(:! (=x3+:%-'6=#(:[Bh*I#=2*12Y73Xp[v(=XjL:r$(X7Qw*ubJ9<<6(/h0
o)LW-9 -50.+($xza1s):)XSZj54981h*7\;9]x*$=+ImS2$P=5W+Bp2Y73)$/%:l
T**!=x*$x#/ob>2Y7jw%%0ax7Qw(9> /sdw-9/-(B5)*/ :l
TG# 9A2p79VtJx*$3Jx(:F+7=uI:=_;[%T5:)X:ZI#) 512Y7jX3/*e;$rq
$*7;X7Qw*/b:*>]H:\_/$_#6(EHY*<#!(9A27=vX#(fJ77$$:)XhZxJU#S (=xJ,y
84/$_#lH[/E5b;h9!1h;7$/:)X5s!J+3[Hh70.+3[X(\7Qw39-Ug%#(:[ +9Xjq
$512Y7jXEsvJS$3H:5gU$_#+H[Jh(7[P:)X:Z=-je9=J$_#+H/J+9[
af(9A2)!3,(uh(=XjJ:- 2Y7-X>[je90.+(2x]T%[W-9\:zX343ixlm0s$:)X5P!J+m[%EL
T*\9X=2Y7jX(/vTSe#;inX*$33xcS25PxyWOD32Y7.Ph2vJt3j+E9$a3\#(:[B:P<8
_2%8/3s3w-91-7e]i)'xIV40=%'X*$=+4e:HET3J+)9$ h-%/[9A2p!j+p9p3WRSw-9 0
oU'W-91-;>jJ:5iID1JW-9%-Se54)*\:pi#$F];;77Qw(93(j1jw-9 ez$ri>6
:;a4D=:)X:Zx33c9C;A4d=:)X:ZxuW25G7v,#(:/B:)h]l:-g7V,#(:'Bh5b<_(/F0
oS2#orX*$x++P92!hy%w-9 0
oS2K09A2p0.+3/xAaYTW-91(=X3+:Kg/w7Qw(9>!v,#(:/25P=JQ
$KgU37Qw(*\:7X#/FKX*$=+49!1:(7G=99A2p!U3C9>\$_#4H'J(=x3py
8>]G.*$<9A2p!r+>9-\xs9w-9 -S=-w'kp($_#+HIVh*7KV!=x*$=RQ
$=.\ 7QwC9-D DGy:)X:$Gsp:)X:Zb3p#:Z
-61'$U9D'[=\M-'B:Px<6m9D'[b\M-/B:Px<6)6
:2.%gp+%a)ZbJ+9!u2.%gU+%a:ZxJ+9!J0
o7/2%[$ yb+,(/25s7/2%'$ yx++(/259[
+t'Y=O$6S/3]O*S!-+(*\)$6S/C]O*p!j+(*\yl
T#s k o7_;XC/1(=J#s k%o7_jX(/1(=$8
_:c7a7\-(Me%:p0.3:c7a5\-((e1:p0.HY
8xgjs39M)U-5Xj)*uxgjs-9M)1-pXj)*2z
$$6S/3o/*S!-+(*\)$6S/Co/*p!j+(*\yl
T#s k o0_;XC/1(=J#s k%o0_jX(/1(=$8
_:c7a7\5(Me%:p0.3:c7a5\5((e1:p0.HY
8xgjs39W)U-5Xj)*uxgjs-9W)1-pXj)*2z
$$6S/3oh*S!-+(*\)$6S/Coh*p!j+(*\yl
T#s k o;_;XC/1(=J#s k%o;_jX(/1(=$8
_:c7a7\3+-ub:pX<6M9d'[BKP()1-pXj)*2z
$$6S/3o HYJ++(/25S7/2%'MH7_jX(/1(=$8
_:c7a7\3u-ib:pX<6M9d'[BKPC)1-pXj)*2z
-61'$U9D'[=D/0)%-sxJ)*UXGJS-;%Ma:ZxJ+9!J0
Z.[5'OXgjs3T%mAJzJj+9!U2.%Gu2k.*p!j+(*\yl
!*$;5M2.%gp6[avZxJ+9!u2.%gU6[a:ZxJ+9!J0
o7/2%[-jy>++(/25s7/2%'-jyx++(/259[
aWqx>h<jqlH/1:T3;Wqx>j<jq+H/1:T35Q
$9D'[=9I-SB:Px<6m9D'[b9I-/B:Px<6)6
:2.%gp6IavZxJ+9!u2.%gU6Ia:ZxJ+9!J0
o7/2%[-Yyj+3(/25s7/2%'-Yyx++(/259[
aWqx>h<Iq3HU1:T3;Wqx>j<Iq+H/1:T35Q
$9D'[=9l-UB)Px<6m9D'[b9l-/B:Px<6)6
:2.%gp6(a)ZjJ+9!u2.%gU6(a:ZxJ+9!J0
o7/2%[-hP_;xm/1(=j#S K%p7xq+H/1:T35Q
$9D'[=9p3)V-PxJ)*UXGJS-Y3[a:ZxJ+9!J0
Z\T;9rX36=#5:x>h:_/2%[$#$%gU;)D'[b*::Y0>y6'K2<Z
->md)f96o77'w k 3Y6S/3o 2js-5-c7a5\3w;B;*.8z936
BOwY<=:Ymj$8#2%[6*.%gpu'X'[b'(qx>j>b#5<faG:9kUy
eMDv0%w;oU2:7S/3yAgjs39M97a58Qs k%oS7'kA)d3/\;q
HO. T,#5u:X3$%gp;)D'[=kI:x>j:_/2%'mS$8Z*-C6U>h8
XUmp(37'9p962js35-c7a7\rw k%3Y6S/Cov2:9h(Qy0o0[
+90%2l$8kh:YX'[='(qx>h>$#2%'6*.%gUu2X3//qS;bmYL
!KVO*I2:\Uw;97a78Qs k o(7S/CyAgjs-9W96ud_/5<o*0
Z\T;9rX3>>#5:x>h:_/2%[mv$%gU;)D'[bkl:Y0>y6'KuSZ
->md)f96o;7'w k 3Y6S/3of2js-5-c7a5\]w;B;*.8z9#6
BOwY<=:YmhP7'W K 3y6s/3O :$%gU;)D'[bkp(96UD_/5<O :L
!KVO*I2:\3P:yx'[='(QX>H>=3w k%3Y6S/Co H$8z*-c6u>=3q
HO. T,#5u[%2:7s/3YaGJS393'X'[b'(qx>j>=-W;b;*.8Z93'Z
->md)f96 [m#5:X>H:_/2%[paW7S/CyAgjs-;%mx3t9Qs;%>Dl
!KVO*I2:.GV:yx'[='(QX>H6stw k%3Y6S/C]>D$8<k-c6i[m8
XUmp(37'y3962js35-c7a7+3w k%3Y6S/C\ 2:0z(Qy-Hl
!KVO*I2:+-w;97a78Qs k P57S/CyAgjs-yC96(/_/56'z
->md)f96PS7'w k 3Y6S/3\U2js-5-c7a5+;w;*0*.893Y
eMDv0%w;\/2:7S/3yAgjs3y>97a58Qs k%P)7')<)d3<H8
XUmp(37'yp962js35-c7a7+rw k%3Y6S/C\v2:0z(Qy-+l
!KVO*I2:+5w;97a78Qs k P97S/CyAgjs-y)96(/_/562z
->md)f96P(7'w k 3Y6S/3\*2js-5-c7a5+Uw;*0*.89JY
eMDv0%w;\h2:7S/3yAgjs3yE97a58Qs k%P*7')<)d3<>8
XUmp(37'y#962js35-c7a7+]w k%3Y6S/C\f2:0z(Qy-el
!KVO*I2:+3+:yx'[='(QX>H<=jw k%3Y6S/C\ :$8<k-c6P7X8
XUmp(37'y3[x3$%GP;)d'[=9P397a58Qs k%P7=#59BAg:+3PY
eMDv0%w%XOi$s#k%5I(Y=8
XUmp(37GkfDxa$9G$f*AHzBrq
HO. T,#/Tb72[7Z/'r2*P!u4y
e$;:1Kw!=>L.s<o )10
Z.[5'OX'*<\f Wa:L
!*$;5M2j=-4+-77YX8
X<03aM%# Um02V72W<930
o7X((9i*Vd% y
8xo'_3wiYe yY:M;3Pz$u'o<)p\,84k+9cz,_D[i=czL
T#oO)p\'y\wR%a  rD :D6 Yy:m;%[2'Og;-%_faSD y
8xF/_d[7B[2\9q;T00z$u'k-%_4:9\w7n>UyY:OZK0zL
T# 7) 2/42f-/Xuho92-/xZAst -[z
$$9CDf)10
Z.[5'OXgMu\(39D]3#qp:c, Y=8
X256;>7/t6WPU8_3Q
H]=3g\#sI)Y4n6Wm+ad]O6dm+ad]v]#sf)YLn6W=+ad]O6d=+ad]vTz#zR9L8\Ckx6
:2.)D(X3P[.G.Sor[[.GD'c7Xg,8d(xD6 n6WR:cE![yQR7N> n6W6Q%IZn6W;='Y0
o7/O<)yf/f/\*CPl8f/\oQ%1$6x5<)Y4:9,s.7xg'oGk-7E![9,s.!d 3#,s.%lJK[
aWq0P*k=.!o7Xg\9QR3!4uK7/OZdX*$]4diAD]k[
+t'Y=O$u/)tJx*$]K#+VC97c7q
H]=3g\#m+DdFY]d[I=CZOuEux6
BIg8[9:D[4.2Qm+Dz
-61'$U9cz,6gv+%a1,#X6ojcz,#7Q
H]=3g\#m+DdaY]x Ic>D8y#&:D[4.26m+DdFK[
[...]
!*$;5M2vg;s2oIP.)#(:!%-7<j+(/2$pXjq
H]=3g\#;F4uG6\%Yq3X*$33X(/1:pX<6(/%0
Z.[5'OX V+s+q]ml<64W-91-PxJ+(/2$PxJQ
H]=3g\#;o\7j..k=6Ce2y7Jx(/1:Px<_(/10
Z.[5'OX \x/tur-G'7qW(E1:PxJ+981:P[
+t'Y=O$Y*!(C$O3+/O:)xJz$j+(/1(=XjPY
e$;:1KwO5Gu..K=6cE2y7.IH/1:PxJ)*/1hL
!*$;5M2v1js2oIP.)#(::b:pXj+(*\:p=8
X256;>7dy<57g6\%yQ3x*$3rX(/1:pX<_(/U0
Z.[5'OX 6+Z$ C$O3+/O:)x:zXj+(/1(OXj+Y
e$;:1KwO%-'pu/TUR-g'7qW(E1:PxJ+981:P[
+t'Y=O$YDY [cG6\%Yq3X*$X++(/1:p0A+(/z
-61'$U9p <%-mQ]ML<64w-91-PxJ+(/2$PxJQ
H]=3g\#;;b;G6\%Yq3X*$35X(/1:pX<_(/10
Z.[5'OX \%<S2Oip.)#(:/z
-61'$U9p]j=/TUR-g'7qWPE1:PxJ+9!1:s[
+t'Y=O$YX\ [DI>,9S79a2P!J+(/1:TtJ+(6
BIg8[9:%='..k=6Ce2y7.pH'1:PxJ)$/1SL
!*$;5M2vy%/Q]ML<64w-9y+ZE]49!FW7!Rry
e$;:1Kw%N0D..K=6cE2y77pH/%(==J<(EF)s]8
X256;>7GD<Rdi>,9s79a2k>+49! hNx+,mUy0
Z.[5'OXAF6*9F\Df$_#R3eU(=J,+h(U)K[
+t'Y=O$SLKiC$O3+/O:)x170.P(a1-;J;RY
e$;:1Kw%.04A6*9f\dF$_#RM*\HpFjX#uU1l
!*$;5M2v%toQ=Mg'7qW3E1(==JQ
H]=3g\#K!nm;.#kS79a2=x+jy
e$;:1KwOD8Zj6\9Q3x*$].+h$25*5;RY
e$;:1KwO\7>p6\9Q3x*$3jX('/yl
!*$;5M2vy92(c[o.)#(:[bHS[
+t'Y=O$YDY 'Dz>64W-91-7$8
X256;>7d=2*1g8\/o-! -(0.LY
e$;:1KwO4Ug8\/o:)x57!54Y
e$;:1KwO%-'6X/ UcE2Y7.39!*0
Z.[5'OX V+s+iC[O.)qIHUZ
-61'$U9p <%-mQ=Mg'_jXM:z
-61'$U9pmp6\9Q3x*$X8
X256;>7dy<57g8\/o-[betT;q
H]=3g\#;2\0;J6\9q3X*$334y
e$;:1KwOy0>.#Ks79A5)[
+t'Y=O$Y[d<C[O.)q6(E/+L
!*$;5M2vgSPQ=Mg'_jX('z
-61'$U9,aAyts+odF$_#+h(U)l
!*$;5M2Ms2;fc[o.)#(:/beSJ8
X256;>7W/,c[o.)#(:/beSJ8
X256;>7W/,BCg8\/o:)x:ze;3Y
e$;:1Kw.k#u,o/ UcE2Y7jX#uU0
Z.[5'OX JM4S2ODf$_#Ph/257X8
X256;>7z#zo=g6\/o:)x57!-q
H]=3g\#;iW['..kS79a2k33)*SL)Nx+lX6
BIg8[9:%-'Dx/tuCe2y7Jx(' jL
!*$;5M2vy92(c$o.)#(:/z
-61'$U9p <%-s2odF$_#+Y
e$;:1KwOR$(p6*9Q3A5S!U)*sz
-61'$U9p]S6*9Q3x*$3;X36
BIg8[9:%PpJxXS2ODfy3Jx(/1jL
!*$;5M2vy92CDdi>64((e 0
Z.[5'OX <9[2q]mG'_-xe*:SL
!*$;5M2v.9k'Xdi>64(*$v:l
!*$;5M2vRjs2odFYX8
X256;>7d5<Fdi>64w-!/0
Z.[5'OX gOZS2ODfy33x3IZ
-61'$U9pi:%/TUcE*p[
+t'Y=O$GgdoMDI>64W-91-;j;Q
H]=3g\#\%nPl..kS79a2P!]3m6
BIg8[9:4><..kS79a2P!]3m6
BIg8[9:4></U/tuCe2y7Jx#Uu0
Z.[5'OX][*ZMZC$O.)#(:/BEsj8
X256;>7d203dZjBrs79A27!y)*[10
Z.[5'OX ,4\2q=7j064W-9\+t3]q
H]=3g\#;FW['.#sUPCe2Y73xmUu(=E8
X256;>7d;fkdZjBrs79A20!;39!F0
Z.[5'OX <%H+q=7j064W-9\:zX-,Y
e$;:1KwO4Ug8%-4Q3x*$3Jx#2Z
-61'$U9pP/1Ss+X%+.)#(:i/:p[
+t'Y=O$Y*Y<57G8%-4q3X*$=v+Y
e$;:1KwOy0>.#SupcE2Y7.HY
e$;:1KwOypu,6\2CidF$_#6(6
BIg8[9:%4:.#sUPCe2Y7Jx(/1j9[
+t'Y=O$Y%!(C['5</O:)X:zXj+psz
-61'$U9pi\X/  'vg'7Qw(E1:Px3Uy
e$;:1KwO%-'p6\2CidF$_#+h$v0
Z.[5'OX V+s+iC['5</O:)X:zBYq
H]=3g\#;'n0G8%-4q3X*$X8
X256;>7d\Cc['5</o:)X:l
!*$;5M2vy92Cc['5</o:)X:zX3uM/*+l
!*$;5M2[ozVQ=7J064w-9YHz<<63/9:ze;3x6
BIg8[9:K#G8%-4q3X*$]3xm*\)Nx+,mUy0
Z.[5'OXAF9XS+x%+.)#(:7 (==J<(EF)s]8
X256;>7G8<DGg8%-4Q3x*$]-)*[1[P!]3m7Z
-61'$U9p'W)/T 'vg'7Qw3EH(==JQ
H]=3g\#;iW['..sUPCe2Y7.49!f0
Z.[5'OX 34\2q]7j064W-9 -sj;)*(Z
-61'$U9p 3s/T 'vg'7Qw>EJtT3]Q
H]=3g\#;6x;:..sUPCe2Y7.+h/ VSJ8
X256;>7d\Mc$'5</o:)X57!-3m6
BIg8[9:%-Ug%/t 'VG'7QwPE/(ox;Q
H]=3g\#;2\0;J6*2cIDf$_#4(6
BIg8[9:%6UD6*2cIDf$_#6)6
BIg8[9:%6 /U/t 'VG'7Qw*[/-Si8
X256;>7d!(c$'5</o:)XHz=j3Y
e$;:1KwOR4:..SupcE2Y7Jx3: )L
!*$;5M2v.$+Q]7J064w-9\:zX;4Muz
-61'$U9p <%js2X%+.)#(:[z
-61'$U9p <%jmQ]7J064w-91-5E;3y
e$;:1KwOR$(p6*2CidF$_#6cE1E;$u)*SZ
-61'$U9p;A9/T 'vg'7Qw(6
BIg8[9:%,j..sUPCe2Y7JQ
H]=3g\#;o\7j..sUPCe2Y7JQ
H]=3g\#/Zb.G6%-4q3X*$]3x>Su(==J<(EF)s]8
X256;>7G8Q]7J064w-9YHzH<6Ma1-;J;RY
e$;:1Kw%.04..SupcE2Y77P9! :nX+,MuY0
Z.[5'OXAF9Xdq]7j064W-9YJzH<63/9:ze;3x6
BIg8[9:b8!>1/  Uud'64(c6
BIg8[9:b8!>1/  UuG'_.pH/u0
Z.[5'OX4H#sS+xu).)qrmEHvT3y6(E1ST35'mA 1L
!*$;5M2<%h+Q=7)S64((e/H)[
+t'Y=O$YDY /DzJj;S7)10
Z.[5'OX]s6\2mUDfy35Q
H]=3g\#/Zb.G8%;3q3a17!;4(/1(==J<(EF)s]8
X256;>7G8<c['SJ/o-7 (=J,+h(U)K[
+t'Y=O$SLKibDzJj;S7)yhZ=<63/9:ZE;3X6
BIg8[9:K#U,OZS+xu).)qr3E/S*0.+3/9:ZE;3X6
BIg8[9:Y0>.#s3mCe*5[
+t'Y=O$rJS+xu).)q+H//))>8
X256;>7dT6B='.#S3McE*p[
+t'Y=O$YDY /cG8%;3q3a:L
!*$;5M2vy%/Q=7)S64(*'by9i<6#6
BIg8[9:%,j.#s3mCe*P[
+t'Y=O$YDY 'DzJj;S7)1-P=yU>6
BIg8[9:%$MP6\2mUDfyx8
X256;>7/5<f[G89qj39d3//*s+BAyp[
+t'Y=O$9cdu5X*$t;Q
H]=3g\#K!nD/ 7qWmE10
Z.[5'OXUHO/ T9a2=j++y
e$;:1Kw<wGgh9#(:ub+l
!*$;5M2/42s!B2*$J++Y
e$;:1Kw<wGgh9G(:ub:l
!*$;5M2/42s;kx*$3;X(6
BIg8[9:b8!.80W-9\)Zx8
X256;>7z#zc6/>_#6Me10
Z.[5'OXUHO/599a2=j++y
e$;:1Kw<wGg[*<(:!U-p[
+t'Y=O$9cdqK#Ay7.3H/Z
-61'$U6
: JM4tq=>;6bRY:)x5)0.P(6
: <%H+q=>;6bRY:)x5p!jHY
8p'W)*s+k=i7<9w-9\jZx<63/Z
$v+S*(c[aG.3469a2=x++e6
BIg8[9:c>;6D9$;) -S[
+t'Y=O$6g$2<X*$j+I)$u(=xVWqKiIe7qW3E +;=<63/XG[9*::)XhZ$Jl>*\h(7/5<]o2y73j:CP4:.PW-910
Z.[5'OXG[1kp:)X)ZIy4(*\:)7//FO 2y73x3[JjT33+:C>U>=#(:[B:sE3)*[*2.8Z939a2P!;+(9D ,8kp:)X:L
!*$;5M2.s[9C9A2)!5H)s25pH#s%RMJ$_#Ph[U+;0.P(9da/\-w-9j-9$]H9! V$6'kU'x*$X+uW/xgvu'9C9A2p[
+t'Y=O$6g$uUX*$h+h)$J(=xVWqKiOs7qW3E );j<63/XG[9k3:)XYZ$]hm*\h*7/5<Ou2y7Jxc$12.YX5uUX*$x8
X256;>7//'o/2Y7vX)2*yt3ji:c>L>H#(:[bHSe;)*[12.sz9>9A29!5,)u257>#s;BMs$_#+h'*:$6dm;o/2Y7jq
H]=3g\#S%5m+$_#IH2Jt90.+>9DA3\RW-9 -7j]39! :$6gKuIX*$$+h#2u(==yWqY0O07qW(E%tP7/;iYm+$_#+y
e$;:1KwQk=o97QwMeh:;$<6(:xg[,KH:)xHz=-LE*\Hp7//<oj2Y73X(/vTt33J:c6u>$#(:/bJ(X#sOD6o97Qw(6
BIg8[9:C>;>I#(:'Bv*$;)*//2.S%9w9a27!;h3U257x#S%bmt$_#UH'%t;0.pw9D3/\uW-91-PE3Wq%c3>I#(:/Z
-61'$U9daG\Yw-9%-*>r,9!1s$6G=Usx*$=+3)/1(==jwQk0o*7QwCe%J*><63$xg:9KL:)x:zX]P:cp4:\Yw-910
Z.[5'OXG[1k,:)XjZb-+3*\:)7//FOF2y73xc/FvT33+:C>U>E#(:'Bv(>J)*[*2.8Z9#9a2P!J,39D ,8k,:)X:L
!*$;5M2.s[93/x*$=+i#(j(=XvwQkIo7X#(:[bsSBY)*[12.sz93/x*$H+,M(U(==UwQy0o7X#(:/b:)B#sOD6o7X#(:/z
-61'$U9daG\3P:)xHz=]4>*\:)7//fo H$_#Ph'vVS0.P(9da/\3P:)x+z<]L>*\H(7/5<o H$_#+h//J$6dm;o H$_#+Y
e$;:1KwQk=o7B#(::bs)H])*/v2.s%93'x*$=+P)'1(==jwQk0o7B#(:ibH)er)*[*2.8z93'x*$X++M(xgvu'93'x*$X8
X256;>7/5Ok.2Y7]+Y
e$;:1KwQy$aW7Qw#/z
-61'$U9d3<=#(:[h0
Z.[5'OXG:+-W-9 vL
!*$;5M2.893:)xH*[
+t'Y=O$6'Y>9a27>8
X256;>7/56ix*$=Yq
H]=3g\#S;\J2y7Vxm6
BIg8[9:C6p(7qW>Eu0
Z.[5'OXG:+yW-9/-s[
+t'Y=O$6'Y#9a2s[
+t'Y=O$6'Y3/X*$j8
X256;>7/56[ 2Y7jX36
BIg8[9:C, 77qW>EHt([
+t'Y=O$6w;c9a2)!J3m6
BIg8[9:C, s7qW>E1))[
+t'Y=O$6w;>9a2)!J3>6
BIg8[9:C, 07qW>E1))[
+t'Y=O$6w;)9a2)!RIw6
BIg8[9:C, (7qWPE1E*[
+t'Y=O$6w;e9a20!J,)6
BIg8[9:C, ;7qWPE%+0[
+t'Y=O$6w;3/X*$<+pmSZ
-61'$U9d]v=3w-9v-p<3q
H]=3g\#S.% j$_#4HU*jL
!*$;5M2t83s39A20!5L392376-w-9/-*iYw9y gS7Qw>e TS[
+t'Y=O$0'Uq[X*$h+pwUX(:b/U:)X)Z>yl:*6j.j#(::Bh(j8
X256;>7<5Mc 2Y7vX3$U2t8;sC9A2S!YL#923S6;w-9/-7i;q
H]=3g\#);:Dh$_#IH[*)$0'Iq'X*$j+le(X(:h/3:)XSZ=u3y
e$;:1Kw9yvg77Qw>e TS7<5pc%2Y7;XEsf2t8rsM9A2)!3JM6
BIg8[9:*6Y.=#(::Bh(j#);2Dj$_#IH:JE$0'hqUX*$<+pP$Z
-61'$U923(63w-9v-7<Uw9y*g57Qwpe1);7<5WcU2Y7rX3i*0
Z.[5'OX(:>/p:)X+Z=Rj:*6v.b#(:IB:s$#);SD)$_#4H[VtL
!*$;5M2t8]s39A20!34W923;6-w-9v-SJUw9yfgS7Qwpe +;[
+t'Y=O$0'p(C 2y7Rx3IF2T83+q'X*$<+pc/X(:=JSm9a20!34#6
BIg8[9:*6h763W-9V-7<]W9Y h.b#(::BE5$#);[ Gs7qWPE%Y*[
+t'Y=O$0'pcC 2y7Rxc2H2T83Uq'X*$<+lmIX(:=-Sm9a25!5p)6
BIg8[9:CmhJ7qW3E/:T3Jjy
e$;:1KwQo%'$_#Ph21(=XUq
H]=3g\#SuU72y73x)/25PI8
X256;>7/9>Xx*$=+H(*\:([
+t'Y=O$6k4 9a27!5+9!1tL
!*$;5M2.\52:)xHz$j)*/*0
Z.[5'OXG>IsW-9u-9x<6($Z
-61'$U9do*%#(:ubyp0.+W6
BIg8[9:CmEJ7qWmEJ:T3Jjy
e$;:1KwQo :j7QwEe1:t3jJY
e$;:1KwQo Hj7QwEe1:t3jJY
e$;:1KwQo Jj7Qw3'b:p0.+W6
BIg8[9:C8lV9#(:$BhP0.+w6
BIg8[9:C8lVY#(:UBYP0.+w6
BIg8[9:C8lV.#(:'BYP0.+w6
BIg8[9:C8OV=#(:[BYP0.+w6
BIg8[9:C8OVb#(:[BYP0.+w6
BIg8[9:C8OVj#(:[BYP0.+w6
BIg8[9:C8OVh#(:[BYP0.+w6
BIg8[9:C8OV<#(:[BYP0.+w6
BIg8[9:C8OV$#(:UBjP0.+w6
BIg8[9:C8OVI#(:UBjP0.+w6
BIg8[9:C8OV>#(:UBjP0.+w6
BIg8[9:C8OVE#(:2Bh00.+w6
BIg8[9:C8OV=JW-9J-7<<6($Z
-61'$U9d7>y3P:)xHzXU)*/j0
Z.[5'OXGH\Dpc9a27!V+9!1YL
!$ 2y.'l
.ENDL FFFF3CS
.LIB FFFF3CF
.LIB 'rx65_1.01_e.lib' COMMON
.prot FREELIB
H]=3g\#s;k[*5X#s;k$*5X8
X256;>7/5%=7*5x#s;k$'YBjq
H]=3g\#s;B;Z.#z(W[xG:9Htq=0*9x8
X256;>[
aWOX.F.#/o:)x:Z<<63/Z
$$YD=%C[G'7qWx/b+n<<6#qU1l
T#K!nm;.#/O:)x5P!RQ
$9p4h#Ss+cE2y7763*\V-J,+hiY0
o7dy F1g864w-9\:zX;4p6
:2v,*)(c[g'7qW*/bHt3Yq
$9p <%*+Q=dF$_#+9!*0
o7d\Mc[g'7qW*'bVl
T#;o\7:.#/O:)x:Zx;IP6
:2vy92Cc[g'7qW*/b:p<8
_:%PpJxXS+Ce2y7jX([h0
o7d;6X%4.#/o:)x:Z=8
_:%-Ug%/ q3X*$3Jxm'2$)[
aWO]-uG%/ Q3x*$3]+y
8x :9HS+Ce2y7.iY
8x \%<S+Ce2y7JQ
$9p]j=/ Q3x*$X8
_:%4:.#/O:)XhT3;Q
$9p;A9/ Q3x*$3vXE6
:2[ozVQ=dF$_#r3EHS7b<63/9:ZE;3X6
:2[oz=Q=dF$_#r3E v*0.p(A1-;j;ry
8xAF6\S79A2K=+39!U[p!]3M7z
$$SLKiC[G'7qWx[257X,+h(U)K[
aW%.04A6\s79a2KJ<63/9:ze;3x6
BIg8[9y
8x JM4S2Ce2y7jXp*\Hp[
aWO%Ia../o:)x1P!-<P*\E-j7Q
$907A\[s2cE2y7.+h'10
o7dm!=7g664w-9Y570.L=u9:zB7q
$9pPj/js2cE2y7Jx(UujL
T#;o\7IP6*S79a2p0.HY
8x 3.<+q]Df$_#6c*\vL
T#;.UDI.)#(:!%-0[
aWO%-'p6*s79a2=X++(/v0
o7d;6X%g664w-91-pXjq
$9pP/1Ss2cE2y7jX([2$0[
aWO%-'pu/TQ3x*$x++((Z
$$YDY 'cG664W-91-p[
aWO5Gu../o:)x5p!;LY
8x \x/tq3X*$B<6>6
:2v.$+Q]dF$_#6(e/(=<8
_:%4'T6*S79a2P!JIy
8x m%3S2Ce2y7JQ
$9piM%3s2cE2Y7jq
$9piG%/TQ3x*$=j+Y
8x :9HS2Ce2y7.iY
8xAa9TS2Ce2y77Ph2%Jt33+5/beSJ7q
$9>!/,/TQ3x*$]3x3SH(==J<(EF)s]8
_:K#G664W-9YHzJ<6Ma1-;J;RY
8xAF9XS2Ce2y77P9! :nX+,MuY0
o7G8<DGg664w-9Y)zi<63/9:ze;3x6
BIg8[9:%7d'6\=6Ce*P!R)*[10
Z.[5'OXUHOk$q=ip.)q6(Eu0
Z.[5'OX ,4\2q=ip.)q6(E (=>8
X256;>7d=!=7g8,9s7)\:z=<6E6
BIg8[9:%-'Dx/ F\Dfy3Jx(U/YL
!*$;5M2vg;s+R-g'_.uh(z
-61'$U9p <%js+R-g'_.+h/*+0[
+t'Y=O$YDY 'Dz3+/O-!1-PxyQ
H]=3g\#;o\7:,6\=6Ce*P!J+m[V0
Z.[5'OX V+sUiC[l<64((E10
Z.[5'OX 3.<+q=ip.)q6c*\vL
!*$;5M2vRjs+R-g'_jq
H]=3g\#;6b='.#%Yq3ahsxJQ
H]=3g\#;F\0;J6\=6Ce*P[
+t'Y=O$Y*Y<57G8,9S7)JjL
!*$;5M2v12kQ=IP.)Q6(eUH0Xjq
H]=3g\#;'xDz3+/O-/Z
-61'$U9pmj0/ f\dFYX8
X256;>7dT.X g8,9s7)10
Z.[5'OX 61sS+r-G'_R+y
e$;:1KwO47H36\=6cE*p!r)*(z
-61'$U9p3/// f\dFY35q
H]=3g\#;;%04.#%Yq3a5)x8
X256;>7d5OBCoh#/ f\dFYX8
X256;>7d/z%.g8,9s7)\Jz=3u9! Hl
!*$;5M2vs2;fc[L<64(*[bH*><63[z
-61'$U9paf6\=6cE*=X++(/ H0[
+t'Y=O$Yg8<dDz3+/O-! (==3Q
H]=3g\#;%.04a6\=6Ce*=j<63[Z
-61'$U9p'W)/Tf\dFYX+49! :l
!*$;5M2/429'c$L<64(*/bJp[
+t'Y=O$YX#+xDI3+/O-!1-5<<6e6
BIg8[9:%i78%/tF\Dfy3Jx3*\vL
!*$;5M2v+S*(c$L<64((e1)9i8
X256;>7d;6X1g6,9s7)1-p=Yq
H]=3g\#;o\7j..%Yq3a:ZxyQ
H]=3g\#;o\7j,6*=6Ce*P!;U(6
BIg8[9:%iITx/tF\Dfyx8
X256;>7d=f]2/..%yQ3A5p!r)*sz
-61'$U9pL3.<+Q]IP.)Q63e T00.LY
e$;:1KwO01g6,9s7)1-pX8
X256;>7d=r/di3+/o-!1-pXjP)s10
Z.[5'OX 6rJS2r-G'_.+H/1:P=]Q
H]=3g\#;.'DI3+/O-!1-PxJQ
H]=3g\#;.UDI3+/O-!u-P[
+t'Y=O$Yw3[C$l<64((EV:L
!*$;5M2vy92(Ddi3+/o-!1-pXrq
H]=3g\#;6b='..%Yq3ajZ=<_>6
BIg8[9:%$p/1sS2r-G'_JQ
H]=3g\#;'n0G6,9S7)\hZ>]Q
H]=3g\#;.*7;..%Yq3a:Zxu4y
e$;:1KwO57g6,9s7)\HpXj+Y
e$;:1KwO]='..%yQ3A:l
!*$;5M2vRS)Q]IP.)Q+h[z
-61'$U9pL\%<s2R-g'_jX(6
BIg8[9:%$]J=/tF\Dfyx8
X256;>7d\ [Ig6,9s7)10
Z.[5'OX :9HS2r-G'_.hy
e$;:1KwOypu,6*=6cE*=>jq
H]=3g\#;;%04>4\S2r-G'_.l(6
BIg8[9:%>!VM/tF\Dfy].UH[ jT33p5'L)k[
+t'Y=O$YgdorDI3+/O-7\hZ=yl9! hNbe3X6
BIg8[9:%><..%Yq3a1=x++(/ h0f-'m7Z
-61'$U9paf9xs2R-g'_763*\H7F-'M7z
-61'$U9paf9xDQ]IP.)QR*u257=,u=uY0
Z.[5'OX JM4S+Oip.)#(:7 -00.p(Q -0]8
X256;>7z#zo=g8\%yQ3x*$33Xp6
BIg8[9:%c78%/ ur-G'7qW*/B+T3yQ
H]=3g\#;FW['.#k=6Ce2y77+H'25*53xP7Z
-61'$U9p3v9xs+oIP.)#(:!h:l
!*$;5M2vy%/Q=ML<64w-9Y:zBr)*slHz<7q
H]=3g\#;6x;:.#k=6Ce2y7.+H/u:;[
+t'Y=O$YDY /Dz>,9S79a2=j++P6
BIg8[9:%PpJb/ ur-G'_.+H/ 0
Z.[5'OX V+sUiC[O3+/O-/Bh([
+t'Y=O$YDY ]1G8\%Yq3a:L
!*$;5M2vy922[dZ>,9s7)10
Z.[5'OX 3.<fq=ml<64(3EV(=>8
X256;>7d=2*1g8\%yQ3A5S!Y+9!h0
Z.[5'OX 3,*)(C[O3+/O-/Z
-61'$U9p]S6\9f\dF$_#63eh0
Z.[5'OX V+s+iC[O3+/O-:BjL
!*$;5M2v+z$ c[o3+/o-!UTpX8
X256;>7d5<FdZ>,9s79A59[
+t'Y=O$Y%Y<57G8\%Yq3X*$IJQ
H]=3g\#;2\0;J6\9F\Df$_#4#6
BIg8[9:%=!/6\9F\Dfy3Jxw/Z
-61'$U9p]t%[s+oIP.)Q+Y
e$;:1KwO01g8\%yQ3x*$X8
X256;>7d\ [dZ>,9s7)10
Z.[5'OX g%/ ur-G'_.3(/10
Z.[5'OX [ODvq=ml<64W-9y57!-I9! h-=+4X6
BIg8[9:%>!V,/ ur-G'7qWX!H(==-'3EV1L
!*$;5M2vsls+oIP.)#(:7\:zXj+3ulHz<7q
H]=3g\#;%.04.#k=6Ce2y7763*\h753xP7Z
-61'$U9paf9xDQ=ML<64w-9Y5S0.P3q -0]8
X256;>7d203di>,9s79a27!J+(/1:T3Jp(6
BIg8[9:%c78%/tur-G'7qW*UB:PxJ+(*\:PE8
X256;>7d=!=7g6\%yQ3x*$=+4(/1:p0.+((z
-61'$U9p3v9xs2oIP.)#(:/b:pXj+(*::pX8
X256;>7z#zo=g6\%yQ3x*$X++(/1:p0A+(/z
-61'$U9pPj/js2oIP.)#(:ub)pXj+(*\:pB8
X256;>7d;6X$:..K=6cE2y7JQ
H]=3g\#;F]2:..k=6Ce2y7.pH/%:PxJ)*/1tL
!*$;5M2vg;s2oIP.)#(:!%-7<j+(/2$pXjq
H]=3g\#;F4uG6\%Yq3X*$33X(/1:pX<6(/%0
Z.[5'OX V+s+q]ml<64W-91-PxJ+(/2$PxJQ
H]=3g\#;o\7j..k=6Ce2y7Jx(/1:Px<_(/10
Z.[5'OX \x/tur-G'7qW(E1:PxJ+981:P[
+t'Y=O$Y*!(C$O3+/O:)xJz$j+(/1(=XjPY
e$;:1KwO5Gu..K=6cE2y7.IH/1:PxJ)*/1hL
!*$;5M2v1js2oIP.)#(::b:pXj+(*\:p=8
X256;>7dy<57g6\%yQ3x*$3rX(/1:pX<_(/U0
Z.[5'OX 6+Z$ C$O3+/O:)x:zXj+(/1(OXj+Y
e$;:1KwO%-'pu/TUR-g'7qW(E1:PxJ+981:P[
+t'Y=O$YDY [cG6\%Yq3X*$X++(/1:p0A+(/z
-61'$U9p <%-mQ]ML<64w-91-PxJ+(/2$PxJQ
H]=3g\#;;b;G6\%Yq3X*$35X(/1:pX<_(/10
Z.[5'OX \%<S2Oip.)#(:/z
-61'$U9p]j=/TUR-g'7qWPE1:PxJ+9!1:s[
+t'Y=O$YX\ [DI>,9S79a2P!J+(/1:TtJ+(6
BIg8[9:%='..k=6Ce2y7.pH'1:PxJ)$/1SL
!*$;5M2vy%/Q]ML<64w-9y+ZE]49!FW7!Rry
e$;:1Kw%N0D..K=6cE2y77pH/%(==J<(EF)s]8
X256;>7GD<Rdi>,9s79a2k>+49! hNx+,mUy0
Z.[5'OXAF6*9F\Df$_#R3eU(=J,+h(U)K[
+t'Y=O$SLKiC$O3+/O:)x170.P(a1-;J;RY
e$;:1Kw%.04A6*9f\dF$_#RM*\HpFjX#uU1l
!*$;5M2v%toQ=Mg'7qW3E1(==JQ
H]=3g\#K!nm;.#kS79a2=x+jy
e$;:1KwOD8Zj6\9Q3x*$].+h$25*5;RY
e$;:1KwO\7>p6\9Q3x*$3jX('/yl
!*$;5M2vy92(c[o.)#(:[bHS[
+t'Y=O$YDY 'Dz>64W-91-7$8
X256;>7d=2*1g8\/o-! -(0.LY
e$;:1KwO4Ug8\/o:)x57!54Y
e$;:1KwO%-'6X/ UcE2Y7.39!*0
Z.[5'OX V+s+iC[O.)qIHUZ
-61'$U9p <%-mQ=Mg'_jXM:z
-61'$U9pmp6\9Q3x*$X8
X256;>7dy<57g8\/o-[betT;q
H]=3g\#;2\0;J6\9q3X*$334y
e$;:1KwOy0>.#Ks79A5)[
+t'Y=O$Y[d<C[O.)q6(E/+L
!*$;5M2vgSPQ=Mg'_jX('z
-61'$U9,aAyts+odF$_#+h(U)l
!*$;5M2Ms2;fc[o.)#(:/beSJ8
X256;>7W/,c[o.)#(:/beSJ8
X256;>7W/,BCg8\/o:)x:ze;3Y
e$;:1Kw.k#u,o/ UcE2Y7jX#uU0
Z.[5'OX JM4S2ODf$_#Ph/257X8
X256;>7z#zo=g6\/o:)x57!-q
H]=3g\#;iW['..kS79a2k33)*SL)Nx+lX6
BIg8[9:%-'Dx/tuCe2y7Jx(' jL
!*$;5M2vy92(c$o.)#(:/z
-61'$U9p <%-s2odF$_#+Y
e$;:1KwOR$(p6*9Q3A5S!U)*sz
-61'$U9p]S6*9Q3x*$3;X36
BIg8[9:%PpJxXS2ODfy3Jx(/1jL
!*$;5M2vy92CDdi>64((e 0
Z.[5'OX <9[2q]mG'_-xe*:SL
!*$;5M2v.9k'Xdi>64(*$v:l
!*$;5M2vRjs2odFYX8
X256;>7d5<Fdi>64w-!/0
Z.[5'OX gOZS2ODfy33x3IZ
-61'$U9pi:%/TUcE*p[
+t'Y=O$GgdoMDI>64W-91-;j;Q
H]=3g\#\%nPl..kS79a2P!]3m6
BIg8[9:4><..kS79a2P!]3m6
BIg8[9:4></U/tuCe2y7Jx#Uu0
Z.[5'OX][*ZMZC$O.)#(:/BEsj8
X256;>7d203dZjBrs79A27!y)*[10
Z.[5'OX ,4\2q=7j064W-9\+t3]q
H]=3g\#;FW['.#sUPCe2Y73xmUu(=E8
X256;>7d;fkdZjBrs79A20!;39!F0
Z.[5'OX <%H+q=7j064W-9\:zX-,Y
e$;:1KwO4Ug8%-4Q3x*$3Jx#2Z
-61'$U9pP/1Ss+X%+.)#(:i/:p[
+t'Y=O$Y*Y<57G8%-4q3X*$=v+Y
e$;:1KwOy0>.#SupcE2Y7.HY
e$;:1KwOypu,6\2CidF$_#6(6
BIg8[9:%4:.#sUPCe2Y7Jx(/1j9[
+t'Y=O$Y%!(C['5</O:)X:zXj+psz
-61'$U9pi\X/  'vg'7Qw(E1:Px3Uy
e$;:1KwO%-'p6\2CidF$_#+h$v0
Z.[5'OX V+s+iC['5</O:)X:zBYq
H]=3g\#;'n0G8%-4q3X*$X8
X256;>7d\Cc['5</o:)X:l
!*$;5M2vy92Cc['5</o:)X:zX3uM/*+l
!*$;5M2[ozVQ=7J064w-9YHz<<63/9:ze;3x6
BIg8[9:K#G8%-4q3X*$]3xm*\)Nx+,mUy0
Z.[5'OXAF9XS+x%+.)#(:7 (==J<(EF)s]8
X256;>7G8<DGg8%-4Q3x*$]-)*[1[P!]3m7Z
-61'$U9p'W)/T 'vg'7Qw3EH(==JQ
H]=3g\#;iW['..sUPCe2Y7.49!f0
Z.[5'OX 34\2q]7j064W-9 -sj;)*(Z
-61'$U9p 3s/T 'vg'7Qw>EJtT3]Q
H]=3g\#;6x;:..sUPCe2Y7.+h/ VSJ8
X256;>7d\Mc$'5</o:)X57!-3m6
BIg8[9:%-Ug%/t 'VG'7QwPE/(ox;Q
H]=3g\#;2\0;J6*2cIDf$_#4(6
BIg8[9:%6UD6*2cIDf$_#6)6
BIg8[9:%6 /U/t 'VG'7Qw*[/-Si8
X256;>7d!(c$'5</o:)XHz=j3Y
e$;:1KwOR4:..SupcE2Y7Jx3: )L
!*$;5M2v.$+Q]7J064w-9\:zX;4Muz
-61'$U9p <%js2X%+.)#(:[z
-61'$U9p <%jmQ]7J064w-91-5E;3y
e$;:1KwOR$(p6*2CidF$_#6cE1E;$u)*SZ
-61'$U9p;A9/T 'vg'7Qw(6
BIg8[9:%,j..sUPCe2Y7JQ
H]=3g\#;o\7j..sUPCe2Y7JQ
H]=3g\#/Zb.G6%-4q3X*$]3x>Su(==J<(EF)s]8
X256;>7G8Q]7J064w-9YHzH<6Ma1-;J;RY
e$;:1Kw%.04..SupcE2Y77P9! :nX+,MuY0
Z.[5'OXAF9Xdq]7j064W-9YJzH<63/9:ze;3x6
BIg8[9:b8!>1/  Uud'64(c6
BIg8[9:b8!>1/  UuG'_.pH/u0
Z.[5'OX4H#sS+xu).)qrmEHvT3y6(E1ST35'mA 1L
!*$;5M2<%h+Q=7)S64((e/H)[
+t'Y=O$YDY /DzJj;S7)10
Z.[5'OX]s6\2mUDfy35Q
H]=3g\#/Zb.G8%;3q3a17!;4(/1(==J<(EF)s]8
X256;>7G8<c['SJ/o-7 (=J,+h(U)K[
+t'Y=O$SLKibDzJj;S7)yhZ=<63/9:ZE;3X6
BIg8[9:K#U,OZS+xu).)qr3E/S*0.+3/9:ZE;3X6
BIg8[9:Y0>.#s3mCe*5[
+t'Y=O$rJS+xu).)q+H//))>8
X256;>7dT6B='.#S3McE*p[
+t'Y=O$YDY /cG8%;3q3a:L
!*$;5M2vy%/Q=7)S64(*'by9i<6#6
BIg8[9:%,j.#s3mCe*P[
+t'Y=O$YDY 'DzJj;S7)1-P=yU>6
BIg8[9:%$MP6\2mUDfyx8
X256;>7/5<f[G89qj39d3//*s+BAyp[
+t'Y=O$9cdu5X*$t;Q
H]=3g\#K!nD/ 7qWmE10
Z.[5'OXUHO/ T9a2=j++y
e$;:1Kw<wGgh9#(:ub+l
!*$;5M2/42s!B2*$J++Y
e$;:1Kw<wGgh9G(:ub:l
!*$;5M2/42s;kx*$3;X(6
BIg8[9:b8!.80W-9\)Zx8
X256;>7z#zc6/>_#6Me10
Z.[5'OXUHO/599a2=j++y
e$;:1Kw<wGg[*<(:!U-p[
+t'Y=O$9cdqK#Ay7.3H/Z
-61'$U6
: JM4tq=>;6bRY:)x5)0.P(6
: <%H+q=>;6bRY:)x5p!jHY
8p'W)*s+k=i7<9w-9\jZx<63/Z
$v+S*(c[aG.3469a2=x++e6
BIg8[9:c>;6D9$;)1-([
+t'Y=O$6g$2<X*$b++e//(=xVWqKiIe7qW)EF+)<<63[XG[9*::)XEZ$R+m*\h*7/5<]o2y7;Wq%c362#(:/Z
-61'$U9daG\3w-9%-5i3+9!1s$6G=U[x*$$+H#$ (==3wQk0o77Qw)e%))$<63sxg:9KP:)x:z=j+:cp4:\3w-910
Z.[5'OXG[1kU:)XjZ>J+3*\:)7//FO%2y75xe[V+T33p:C>U>b#(::B:P=y)*[H2.8Z9c9a2P!3+(9D ,8kU:)X:L
!*$;5M2.s[9M9A25!Y+(225pH#s%RM)$_#HhsU+*0.P39da/\;w-9/-p=UL9! V$6'kUux*$X+P(/xgvu'9M9A2p[
+t'Y=O$6g$u:X*$b+l(/J(=xVWqKiO)7qW)EH)0><63[XG[9kI:)XSZx3je*\h*7/5<O/2y7Jx3/12.YX5u:X*$x8
X256;>7//'ov2Y7-XE/1yt3ji:c>L><#(:2bVS<Y)*[ 2.sz9p9A2)!jPWs257>#s;BM+$_#+h[1:$6dm;ov2Y7jq
H]=3g\#S%5mY$_#UH'H+*0.+>9DA3\5W-9J-(I-j9! h$6gKu2X*$$++m:u(==yWqY0O97qW(E :P7/;iYmY$_#+y
e$;:1KwQk=o(7Qw3e*)7><6(:xg[,KJ:)xVz=5Jp*\H77//<o*2Y73XMujTt33J:c6u>i#(:/b:)e#sOD6o(7Qw(6
BIg8[9:C>;>>#(:[Bts=R)*//2.S%9e9a2*!3h(/257=#S%bmv$_#pHUuts0.pw9D3/\yW-91-Ph]Wq%c3>>#(:/Z
-61'$U9daG\]w-9 -SJ-P9!1s$6G=U(x*$i+ups*(==3wQk0o;7Qw3e*J9><63$xg:9K,:)x:zXv,:cp4:\]w-910
Z.[5'OXG[1kp(9a2*!],wS25P<#S%rmhP7qWeEVE9<<63[XG[9kp(9a25!]hm2257I#S;bmhP7qW(E1h;7/;iYmhP7qW(6
BIg8[9:C>;>=3W-9*-7I-h9!1+$6g=u[ 2y7uxP:F+T33p:C>U>=3W-9u-s<]+9! t$6'Ku[ 2y7Jx([F2.YX5u[ 2y7JQ
H]=3g\#S%5mh57qWcEJY9E<6(IXG[,kpc9a29!]j3S257=#S%bmh57qWmE1v;I<63$XG:9kpc9a2P!JU(9D ,8kpc9a2P[
+t'Y=O$6';%MX*$bJQ
H]=3g\#S;]>d$_#U(6
BIg8[9:C6p77qW(EJ0
Z.[5'OXG:+-W-91-9[
+t'Y=O$6'Ym9a2P!5Q
H]=3g\#S;\/2y7Jx)6
BIg8[9:C6p07qW(EJ0
Z.[5'OXG:+5W-91-5[
+t'Y=O$6'Yw9a2P!-Q
H]=3g\#S;\H2y7Jxc6
BIg8[9:C6p;7qW(E 0
Z.[5'OXG:+3+:)X:Z=8
X256;>7/56[ 2Y7jX('z
-61'$U9d]v=#(:'be5$8
X256;>7/\O'x*$B+iC/z
-61'$U9d]vJ#(:'bs5X8
X256;>7/\O:x*$B+iC/z
-61'$U9d]v<#(:'bs5X8
X256;>7/\O2x*$B+JCsz
-61'$U9d]vi#(:ub:0e8
X256;>7/\Osx*$J++psz
-61'$U9d]ve#(:ubH0J8
X256;>7/\O[12Y7;X(sU0
Z.[5'OXGmY3p:)X)Zx;py
e$;:1KwQ4pH57QwMe%JS[
+t'Y=O$0'pq[X*$j+I(SX(:=/U:)XjZE-j:*6h.j#(:'B+Ph8
X256;>7<5Cc 2Y7-Xp//2t8-sC9A25!;3M92356;w-9%-0Xvq
H]=3g\#);UDh$_#UHI1S$0'3q'X*$b+3mUX(:j/3:)XjZ<JIy
e$;:1Kw9y/g77QwCev:)7<5>c%2Y7-XMuU2t8vsM9A25!r+>6
BIg8[9:*6+.=#(:'B+Ph#);IDj$_#UHUu)$0'4qUX*$b+4(:Z
-61'$U923963w-9%-0Xvw9yjg57QwCejV77<5)cU2Y7;X((/0
Z.[5'OX(:I/p:)X)Zx]I:*6t.b#(:UB:5j#);$D)$_#3H/FSL
!*$;5M2t8Ys39A2S!j,>923*6-w-9U-pB-w9yhgS7QwMe1e)[
+t'Y=O$0',q[X*$j++#:X(:E/U:)X)ZbJU:*6E.j#(:UB:;<8
X256;>7<53/dH$_#3h/f+$0'P(c%2Y7;X($%2t83+Qux*$J++#iz
-61'$U9237=/P:)x)zX]4:*6H76-w-9%-;<rw9y H.J#(:ubH9=8
X256;>7<53'dH$_#3h[jH$0'PCc%2Y7;Xp/ 2t83uQux*$=+4W/z
-61'$U9do7%#(:[bsp0.+W6
BIg8[9:CmjJ7qW3EJ:T3Jjy
e$;:1KwQoU'$_#Ph21(=XUq
H]=3g\#Su:72y73x)/25PI8
X256;>7/9pXx*$=+H(*\:([
+t'Y=O$6kh 9a27!5+9!1tL
!*$;5M2.\U2:)x)z$j)*/*0
Z.[5'OXG>>sW-9u-9x<6($Z
-61'$U9do;%#(:ubyp0.+W6
BIg8[9:CmhP%#(:SB:P0.+w6
BIg8[9:Cmh7%#(:SB:P0.+w6
BIg8[9:Cmh5%#(:[%-Px<6($Z
-61'$U9d73yzw-9*-7X<6($z
-61'$U9d73ydw-9U-9X<6($z
-61'$U9d73y*w-9%-9X<6($z
-61'$U9d7>y3w-9 -9X<6($z
-61'$U9d7>y-w-9 -9X<6($z
-61'$U9d7>y;w-9 -9X<6($z
-61'$U9d7>yvw-9 -9X<6($z
-61'$U9d7>yrw-9 -9X<6($z
-61'$U9d7>y5w-9U-5X<6($z
-61'$U9d7>yUw-9U-5X<6($z
-61'$U9d7>yYw-9U-5X<6($z
-61'$U9d7>y]w-9j-7<<6($z
-61'$U9d7>y3+:)xyz=r)*/*0
Z.[5'OXGH\Dp39a27!Jj9!1YL
!*$;5M2.4K;3'x*$=+i(*\:9[
+!+]6dJ[
.ENDL FFFF3CF
.lib T_res
.prot FREELIB
H]=3g\#K!nD3T9q+y
e$;:1Kq
$9DAg.P59ba:Z=J3P*\)$6GT2<6(/_jX('%Tt3]q
$9DlT#Dt8)u-(0.j:Ci(8Y\;-:B)T3uQ
$9D ,90t8)D ,90t8C[2.yx O)d ,#ds+9D ,#X(q%cz,6\Q
$9D3/#X(qY0z,6\WQR038uQsfB6Z,6\q
$9D3/M*t%)D3/M*t%C[2.8< O]O*.8< O]Og8[
aWqY0zV_/5<=PG87/59=pZv_/59=pZv6\q
H0[I:MsQ
.endl T_res
.lib F_res
.prot FREELIB
H]=3g\#K!nD3T9qUy
e$;:1Kq
$9DAg.P59ba:Zxuj)U25s7//2]O3t9Q+h/ TpJ<6#6
:2.,< o]o*s!R49!*2.,< O=p*)!ju9!*0
o7/;ib3Ie_7Sod0/62/ :8XUHO/59b9GVUZf2<D'k[
aWq%czV_7Sod[ .##_:b8!.8<K5CP48Y/2X6
:2.YX i)yGVU\Mq=X$$9cdqY2UN6DM+dD'k[
aWqY0z,_7S;b[4.##6:b8!.8<K5C6U8U/2[7Xg39' I)Yg39' Ic[5/42s;*0[.,z5+Dd'K[
aWqY0d6.g(XC6Uw.*/q=\UHO/59b9G:9Tt2KD'k7/59=piE_7s;*[ 62/ *B8!.8<k5c6(8y*:QX31l
T#s;B[ Y]/5<=pg87.w<wGg:0z<Qy0Zv6SR:C6(8Y\;-7D3T#D oC[5/42S;*0[.8< o=PGJ-7Q
H0[I:MsQ
.endl F_res
.lib S_res
.prot FREELIB
H]=3g\#K!nD3T9q6c6
BIg8[9y
8xg[1*:;*0*p!3u#:25S7//2]o3T9q+H/%vs><6#6
:2.,< o]o*s!y49!*2.,< o=P*)!Rl9!*0
o7/;ib3Ie_7Sod0/62/ :8XUHO/59b9GVUZf2<D'k[
aWq%czV_7Sod[ .##_:b8!.8<K5CP48Y/2X6
:2.YX i)yGVU\Mq=X$$9cdqY2UN6DM+dD'k[
aWqY0z,_7S;b[4.##6:b8!.8<K5C6U8U/2i7Xg39' I)Yg39' Ic[5/42s;*0[.,z5+Dd'K[
aWqY0d6.g(XC6Uw.*/q=\UHO/59b9G:9Tt2KD'k7/59=piE_7s;*[ 62/ *B8!.8<k5c6(8y*:QXC1l
T#s;B[ Y]/5<=pg87.w<wGg:0z<Qy0Zv6SR:C6(8Y\;-7D3T#D oC[5/42S;*0[.8< o=PGJU7Q
H0[I:MsQ
.endl S_res
