******************************************************************************
* *
* TEXAS INSTRUMENTS INCORPORATED
* Standard Linear and Logic Group
* HSPICE Model for SN74AVCH4T245
* PROPERTY OF TEXAS INSTRUMENTS INCORPORATED. UNAUTHORIZED
* REPRODUCTION AND/OR DISTRIBUTION IS STRICTLY PROHIBITED.
*
* THIS PRODUCT IS PROTECTED UNDER COPYRIGHT LAW.
* CREATED 2004, (C) COPYRIGHT 2004, TEXAS INSTRUMENTS
* INCORPORATED, ALL RIGHTS RESERVED
*
* UNLESS THERE IS A SIGNED, WRITTEN AGREEMENT TO THE
* CONTRARY, TEXAS INSTRUMENTS (TI) IS PROVIDING THE IBIS
* MODELS AND WITHOUT ANY WARRANTY, EXPRESSED OR
* IMPLIED. TI ASSUMES NO LIABILITY FOR:
* 1) THE ACCURACY OF THE HSPICE MODELS PROVIDED TO YOUR
* COMPANY;
* 2) THE PROPER FUNCTIONING OF THESE HSPICE MODELS IN YOUR
* DESIGN OR FOR ANY RESULTING APPLICATIONS; OR
* 3) INFRINGEMENT OF PATENTS, COPYRIGHTS OR INTELLECTUAL
* PROPERTY RIGHTS RESULTING FROM YOUR USE OF THESE HSPICE
* MODELS.
*
* TI PROVIDES HSPICE MODELS AS A SERVICE TO OUR CUSTOMERS.
* YOU AND YOUR COMPANY SHALL NOT DISTRIBUTE, SELL OR GIVE
* THESE MODELS TO ANYONE ELSE WITHOUT PRIOR WRITTEN
* PERMISSION FROM TI.
*
* TI RESERVES THE RIGHT TO MAKE CHANGES TO OUR PRODUCTS OR
* TO DISCONTINUE ANY SEMICONDUCTOR PRODUCT OR SERVICE
* WITHOUT NOTICE, AND ADVISES OUR CUSTOMERS TO OBTAIN THE
* LATEST VERSION OF RELEVANT INFORMATION TO VERIFY, BEFORE
* PLACING ORDERS, THAT THE INFORMATION BEING RELIED ON IS
* CURRENT.
*
* PLEASE BE AWARE THAT YOUR RECEIPT AND USE OF THE HSPICE
* INFORMATION PROVIDED SHALL SERVE AS ACCEPTANCE OF THESE
* TERMS AND CONDITIONS. IF YOU DO NOT ACCEPT THESE TERMS,
* YOU SHOULD RETURN OR DESTROY THE HSPICE MODELS AND ANY
* OTHER ACCOMPANYING INFORMATION IMMEDIATELY.
* HSPICE PROCESS LIB file built on Wed Apr 28 10:11:02 CDT 2004
* NOTE: This file contains level 49 HSPICE MOS models
.LIB NOMINAL
.prot FREELIB
590IHS<WTWi($dT5:*eIg#D#+nXzw\#/0Y[(:98
<:e2adm#V+92F61\k!m[2WD#'<F=3t5z=fqp/-19/EX%s05zT!k2w>md)fBlZW\C 'Rx=4[
,WH*>>w7T[T92f61\K!M[2wd#'o*07a#e90%2l/5;3%' -s5\vuW[;37).:=.'$,cK *P0
N7+)%f.2wd:W93$;89cv+9.\$5Z*'Y2W/,%'o*07a#e90%2l/5;3%' -s!')6jLOgO03+E[AD7).y
axZW%#=!B7(v[
+90%2l$#g*:=md/[
aW'/ahL
T#$3)10
o7[U-[Z
$$1G9-[10
o7[[-[Z
$$12k-/b:*evuWiz
$$1%TA51*p[
aW'xajPjVpH'Z
$$-j((6
:2X=q+y
8x/t%[+-u10
o70#+0[7J_3Q
$9>;6\T;-'Z
$$sdk%)1-pX-3p(jHl
T#/OB>/YX++(/%T9=viY
8xav9G;-/z
$$s:()eU)pe<63[z
$$s2;f)10
o7gdoMa)Zx]+3*\hP[
aW%n0lyx8
_:kGuW_;X((1Ht33+Y
8xah%Q+Y
8xaf_jX(/1T9JU3E6
:2[*ZM-'Bj)E5p9! :L
T#/,BC!YB+u>(jHt33+Y
8xaM1*T')1-9[
aW%r>*P[
aW%r2*7[
aWo*i'g_Jx(/JY0>Jly
8x :m$2-/b:0XU+W(z
$$yz![)1-9[
aWo\7:y$++P[JSL
T#;6X14YX8
_:%-'7_3X3' :0[
aWo\7h,_JQ
$9PpJbq6(E1+0E],e6
:2V+sUi)\hL
T#;I-A:l
T#;INA:l
T#)t) 0
o7<2'/a:ZxRle$u)L
T#) 53*=X++32js5>8
_:w#'d_jq
$9#Uy=+p3225PI8
_:4 *p!r4)if0
o7wU-! (=E8
_:4U*p!vi3(1el
T#\M-A55!UL>uv0
o7w) 5a5P!Jp3/ )5[
aW.ja:L
T#\ [A5p!;Hp21el
T#\ [I**!rH>:v(=X]q
$9,'5_.+H/%v*jJIy
8xLt+<=-:f0
o7%#+xa+Z<53#*\:*[
aWFra:L
T#=f=AHl
T#=U5E*7[
aWFO8zyh+l9!1tL
T#=I)10
o7%MF)10
o7%M+) 0
o7k8-/B)9IJ4#6
:2>*ZM-/Bjsh;Im6
:2>*ZMZ)1-5jV3>UZ
$$\tFUmp*S[
aW+K;*)!V,>22$7$8
_:=_;[%t5-'z
$$#2$ *AHtT-3Y
8xZ3)QuhiU)(0.+E6
:28Mc90%aSL
T# 4BMDv_jq
$9$/yx+j)2V)0[
aW2-04yx+l('uE7[
aW2-04a_Jxe/%);=8
_:]>L>_3XM/%y7[
aW2%8/3S3(3E%t)bJ)*/u0
o7*;!-iA5_3x(/1:P0.+P6
:26YcfFK3*=x+p(SVY5[
aW2Y7*P[
aW2Yc/yx8
_:]64A_jq
$9$U[-<p-[2$5j8
_:]0ax0-(3*\:;[
aW2\=!yx8
_:ypu,_YP3ejH5[
aW;b;*P[
aW<j-' ,[d-/Z
$$%to-$be5<])*/f0
o7s59jaj([
aWR/a)Z>3p(225Pb8
_:0=*70.PE6
:2\13()E t*>R)*[10
o7$f-:BS5<3U9! EL
T#![[A500.P#6
:2\Sq+y
8xm[=Q6(e +0B-q
$94'T_.pHSZ
$$+<5<w.ZYJ+PY
8xPWD:(*/bHS=v4W6
:2<9[2-SJE(I+py
8xPj/j((evTpB8
_:D1*70.+W6
:2,4\2-'BY9$u)*/*0
o7X=-/Z
$$u% -[z
$$uK$7) 0
o7X9!=ajZ=5)*/J0
o7X5-[Z
$$ux((6
:2,U%((6
:2,U\(36
:2'*qpH'25PI8
_:3$;:%QPY
ax-tshV:m_\l
F#X9k;D$m:[:*EiG#z#0=xD 7EkA56(-9%==%2uho\'Ump(39E3Mk%HzJ+59\_w>12FM=bi[/#Bb6
928MsWFW0'TY8
XUmp(37*/A9$oW98
_:51*7[
aW'[a:L
T#$C) 0
o7[/u) :L
T#$t) 0
o7[d<)1-5buUm[Z
$$1%TA51*p[
aW'xa55j-3e2Z
$$-j()e%yp>-)*/*0
o70p-/Z
$$-<2'/A)p[
aW[W[M84s(36
:2[1*90%ajL
T#/OB>*p!j+('hVpH5q
$9> /S0((E1:P=]jc2/0
o7g;<KP*P!J+(S E;b3Q
$9>\y$+pP[/(==3Q
$9>!V,q+y
8xaAyt(Mej)SB<63/z
$$s2kf)10
o7gd<Ma)Z$;3c*\hP[
aW%W7*P[
aW%.a:ZxJ+eIHv*<8
_:k#u,_-Xp(UHS0.P(6
:2[*ZMZ)%-0E;pm*\hP[
aW%4=I61q+H2Z
$$s%/-/z
$$s%)-[z
$$y<= 5A:zX33M'hsl
T#;;m4'Y=8
_:%0mx_jX)6
:2V+s+-IBv0>R,y
8x <%jm-/z
$$y923) -5$-4C6
:2V+spi)10
o7DY 'a5P!3+)S tL
T#;6X%4Y33q
$9P4X_JQ
$9P4a_JQ
$92\y=8
_:*7;p_jX('fs(HYq
$92'g-q6(E1h0xV+P6
:2H*s*-/Z
$$*z(#ehJ)0.+E6
:2m=q+H2JSPb8
_:4%*==<6#6
:2mjqUHUVj7E8
_:4U/Y3-X(ihH*[
aW.*7;y3Jx('1:0b3Q
$9,\yx8
_:47HY3jXM$/V9e8
_:47H3_3XM2*H*0.+E6
:2m%-(*/B:shVlPIZ
$$,<y9RAs;[
aWFW['y>+l#/V(=xyQ
$9ilyx8
_:RIZY=8
_:RM;'_3q
$9iOH#qIHS25PI8
_:RC*p[
aWFdi*P[
aWFd[*7[
aWu.a:Zjy,e' 0
o7k8<da:Zbyl>UJ0
o7k8<dg*P!-le:uYL
T#90-MDv_;q
$9[AD_Vxc2JtTt3hy
8xZ 1G20yAHze;,p[z
$$#2$ *AHtT-3Y
8xZ3)QPh/25pe8
_:=.7>md(>6
:28AZ90%a:L
T#T[)1-($54Miz
$$.0kI)1-*X-3#[z
$$.0kINA:z>juM( 0
o7*/FOahZ<VUmSZ
$$.d#[R>HYB+L(u*Ht3juY
8xiv40=%'A+zJY+Cu25pH8
_:]p7x,GF-!1-5irPEuz
$$.'2-[1:l
T#T;D3*p[
aW2Yc!yx8
_:]0ax03(3*:JS[
aW2b>/Tbqp9!1EL
T#T65G*7!-iW'U0
o7';<dajPxVx>[Z
$$8z*-/z
$$9:y JI;A_jq
$97d'_yx)U1ST3J,y
8x':0:(C$z
$$Rj(3e VpX;)*/%0
o7$$-[Bh5h3p9!1EL
T#!'[A5(!3LW:257X8
_:03*S!v+3(257e8
_:03HY3r)*[f0
o7$/-!1-PxRh)'/tL
T#!%[A:zX]i3(1Jl
T#! *A57!5uC(j0
o79);b8d8_;x36
:2<M:[-!1-7h5I#:Z
$$+z$ ) )p=3JY
8xPj/j(*/byp<Uq
$9c:y=<63/Z
$$uC  )%-p>Y49!1Tl
T#mf)10
o7X=+) 0
o7X9'3ahL
T#mUw[*5!3H9!1yl
T#m;) 0
o7XM-/Z
$$ux=-/z
$$ux -[z
$$)l(3e%(=XUq
$9eIg8s(36
92Z0g*09.\ [
,WH*>>w7T[T92f61\K!M[2wd#'<f=3T5Z=FQP(/42 =O. T,Z'mU>j7!;x;*-\-Y[d,0[-\7).y
axZW%#=!B7(v[
+90%2l$Y\M9ri2V[
aW[\ahZjy+(*::7[
aW%..*5!JU(*\h0[
aW9nahZ=3+y
8x\[_jXp/1:l
T##[\AHzXj+(*\:9[
aW!bajZb34c*\h*[
aWF*-(3_3Q
$9m*P!;p(:Z
$$#QPh[1T*0A+(6
:26/c((EJ+(E8
_:]7*)!rHW6
:2:9q3H/ :(<<_(UZ
$$%S((e1:p0A+(6
BOwY<=:%[4/r0S'9P0
o7g80)1-5>R)*[V0
o7cK-:BE)<<63(Z
$$\Q+huhTS[
aW+) -PxJ+(/Z
$$.h#-/bySJjq
$96Uy=J+(/10
Z\T;9rX 8UZ![C$2V[
aW%..*P!yp#*\h0[
aW!baSZEV49! EL
T#9-/b)SXjq
$9[*7!J+(/1:L
T#TAwA:z$;3(6
:2:9qp(/1:P[
+90%2l$Y3SZbPG>hJ/:%Z
$$-9((e1:p[
aW%..*s!3pw*\h0[
aW9na:Z<33y
8x\[_jXp/1:l
T##[\AHzXj+9!1)l
T##<) -;=r)*/f0
o7k((EuY;=8
_:=AHz=5P#6
:26/c((E/v)E8
_:]7*p!3+(6
:2:9q3):%-5b-Q
$97'yx++(/2$Px8
XUmp(37dPQN0 .XGwO6
:2X+q+H/1:L
T#/,mA)z=3J9! +l
T#)z)1-0=;q
$9_Ayx+4(/10
o7cf6) -PxJ)*/u0
o7cK-[BE7<<6((Z
$$\Q+huje7[
aW+) -7$3,y
8xid4Q+h:hs;[
aW2xa:Z=J+y
8x3/_;H>'bJ5B8
_:X7*p!j+(*::p[
+90%2l$Y3SZbPG5IgWo6
:2X+q+H/1:L
T#/,mA)z=3J9! +l
T#)z)1-0=;q
$9_Ayx+4(/10
o7cf6) -PxJ)*/u0
o7cK-[BE7<<6((Z
$$\Q+huje7[
aW+) -7$3,y
8xid4Q+h:hs;[
aW2xa:Z=J+y
8x3/_;H>'bJ5B8
_:X7*p!j+(*::p[
+90%2l$Y3SZbPG*<gWo6
:2X+q+H/1:L
T#/,mA)z=3J9! +l
T#)z)1-0=;q
$9_Ayx+4(/10
o7cf6) -PxJ)*/u0
o7cK-[BE7<<6((Z
$$\Q+huje7[
aW+) -7$3,y
8xid4Q+h:hs;[
aW2xa:Z=J+y
8x3/_;H>'bJ5B8
_:X7*p!j+(*::p[
+90%2l$Y3SZbPG7hJ/:%Z
$$-9((e1:p[
aW%..*s!3pw*\h0[
aW9na:Z<33y
8x\[_jXp/1:l
T##[\AHzXj+9!1)l
T##<) -;=r)*/f0
o7k((EuY;=8
_:=AHz=5P#6
:26/c((E/v)E8
_:]7*p!3+(6
:2:9q3):%-5b-Q
$97'yx++(/2$Px8
Xr=$3W%8
.ENDL NOMINAL
.LIB STRONG
.prot FREELIB
590IHS<WTWi($dT5:*eIg#D#+nXUJ8#/0Y[(:98
<:e2adm#V+92F61\k!m[2WD#'<F=3t5z=fqp/-19/EX%s05zT!k2w>md)fBluj8t z9tkl
F#X9k;D$m:[:*EiG#z#0=xD 7E;9B8!85KVO*Iu-J;/C[b)-9S50=G2rc# 0XxLh9S)O6
92Z0g*09.\ 7<O25[UHM\W0jXW//[59Q0l35D)<Wgz-\T;9r0WsjgU3Eu-:09[=O=!XjZx+K;2RC8
<:=.'$,Ck *p0
Z\T;9rXz[/# uM00
o7[+-[Z
$$13((6
:2gbqpy
8x;[\QP(6
:2gdqpy
8x;A9Q+h/he)BU4Y
8x;3.h$()10
o7[2-'1))=+Uy
8x/p_jq
$93hyx8
_:-2'GXQ3(6
:2X4\!+W7*7[
aW%5$OwYqUy
8xav9G((e1:5Jr,)[z
$$sdk%-A:zXj+C$jH)H8
_:kpu[yQ+Y
8xa _5XMu1et33PY
8xaAy%((6
:2[ODv-UBh5hu)*[10
o7gd<ra:L
T#/zB.*S!3u>$257X8
_:k8'YX8
_:k#*p!j+($j)(JYq
$9></UqUH'/E9=<63/Z
$$slkINAJzBv,)[257X8
_:k,;6.[((ej0
o7g=%)10
o7g=9) 0
o7D)Fx=*P!J+)2VvP>8
_:%6D\%Q+h/v:(XU,Y
8x /R0((ej0
o7DY /aYZxRp):Z
$$y92(DA:l
T#;6X *7!3u3/v0
o7DY [c*P[
aWo\7jy3Jx(IVE;EyQ
$9PpJbX(*[Z
$$yxF-/z
$$yxD-/z
$$0:(36
:2T%[+-/B:0>yjmUZ
$$0S$[)\:zX3H):%Vl
T##,X;*p[
aW,bahZ=3h9!1tL
T#\3)1-0<jiC$z
$$g-(*[25;[
aW.Ua:ZhVp#/F0
o7w3[)\jZIyImIZ
$$g<2')\:zX3P([UJl
T#\t)10
o7w23)\:Zj54)/F0
o7w23ravZ<5I>I25PE8
_:47JY3jX('hVSXvq
$9i(<0%(>(Z
$$,C  )f-(<]+M*\:*[
aWFra:L
T#=f=AHl
T#=U5E*7[
aWFO8zyh+l9!1tL
T#=I)10
o7%MF)10
o7%M+) 0
o7k8-/B)9IJ4#6
:2>*ZM-/Bjsh;Im6
:2>*ZMZ)1-5jV3>UZ
$$\tFUmp*S[
aW+K;*)!V,>22$7$8
_:=_;[%t5-'z
$$#2$ *AHtT-3Y
8xZ3)QuhiU)(0.+E6
:28Mc90%aSL
T# 4BMDv_jq
$9$/yx+j)2V)0[
aW2-04yx+l('uE7[
aW2-04a_Jxe/%);=8
_:]>L>_3XM/%y7[
aW2%8/3S3(3E%t)bJ)*/u0
o7*;!-iA5_3x(/1:P0.+P6
:26YcfFK3*=x+p(SVY5[
aW2Y7*P[
aW2Yc/yx8
_:]64A_jq
$9$U[-<p-[2$5j8
_:]0ax0-(3*\:;[
aW2\=!yx8
_:ypu,_YP3ejH5[
aW;b;*P[
aW<j-' ,[d-/Z
$$%to-$bVS>3i9!1el
T#2;*_*5i8
_:01*S!YP3/j(=X-q
$94;y=<63SZ
$$R[P-2bH(>Y49! :l
T#![)/-)BrPC*\H;[
aWR- *=<<63(Z
$$RG((6
:2\S3(*/Bh0<-Uy
8xmj0Q63eh0
o79);b8d8_;x36
:2<M:[-!1-7j3IP$Z
$$+z$ )hy;iUX36
:2<%H+-/B+0x3,>6
:2,xqp9!1tL
T#m!=7*5!;HMih(=XUq
$9clyx8
_:DIZY=8
_:DM;'_3q
$9cOH#qUH[J(=x5Q
$9c3y=8
_:DC*p[
aWidi*P[
aWid[*7[
aW7.ahZb<6($Z
$$)*$;XAHl
F#X9k;D$m:[Y
ax-tshV:m_\$04T'=07W##Vt9lud1')=BIL-y<k!N[w>md)fBl)Ss-Phub3t+:'U5G/S9+T%Fx=4[
,W+M7234Z29%Z
->md)f9$ad7*90Bz
$$1j(36
:2g=q+y
8x;5_3q
$9=A>_3+y
8x; _3q
$9=!/_Jxc'*js=8
_:5Iid1j((6
:2g%q6cU%)*$8
_:-1*9!-H(s%(=XUq
$93hyx8
_:-2'GXQ3(6
:2X4\!+W7*7[
aW%5$OwYqUy
8xav9G((e1:pBYL(:j0
o7g;<K3*P!J+([Ft5$VQ
$9> /SD((E1:P>3,#' 0
o7g[-2Bh0=V)*[ 0
o7gdora:L
T#/z%.*S!5J#(257X8
_:kGu3_jq
$9>!/Mq3H2*E;0.p(6
:2[4s((6
:2[*q+H/1:*<yleIZ
$$slkI)%-0e;PM*\Hp[
aW%.04a_-xP(uhs0.p(6
:2[G[t25a:Z$8
_:kIaYX8
_:kI(Y=8
_:%2Lj1Q+h/ )SBYiY
8x :m$2-[z
$$yz![)1-9[
aWo\7:y<+lPSVEL
T#;6X14YX8
_:%-'7_3XC2%+5[
aWo\7h,_JQ
$9PpJbq6(E :9>3jy
8x <%-m-! 0
o7DM[)10
o7DMZ)10
o7<[-[Z
$$0S$()1-pB]iW:h0
o7<2'-a5P!JpP//:0[
aW!.7>yx8
_:.0*;!Yu>*\:*[
aW.[a:Z$R4P(/0
o7wU-! (=E8
_:4U*5!;4C[f0
o7w3[)\jZxRl3SZ
$$g<2')\:zX-+(i%Hl
T#\t)10
o7w23)\:ZjuIe2F0
o7w23rahZj5j3S25P>8
_:47JY3jX(u/s*<rq
$9i(<0%(>(Z
$$,C  ) -7B]LC*\:([
aWFra:L
T#=f=AHl
T#=U5E*7[
aWFO8zyh+l9!1tL
T#=I)10
o7%MF)10
o7%M+) 0
o7k8-/B)*EyU36
:2>*ZM-/Bj*>V3)6
:2>*ZMZ)1-5>yIm2Z
$$\tFUmp*S[
aW+K;*)!-h)$2$7$8
_:=_;[%t5-[beSerPY
8xZA1S)-[2$5J8
_:=IFY=++9!1el
T# 0wMDv_vq
$9[n/\T;-/Z
$$.0((e*y9<;4Y
8xix9x((eh:5J]PY
8xix9xD-/bVpB;,36
:26S%9-[B+)b;ly
8xiv40=%[AJz>j3W[25pB8
_:]p7x,Gu-ib)*X-39!1sl
T#TOw3L[-Q6(e%T0=Y3Y
8xi:%QP(/z
$$.'m[)10
o7*5ina:L
T#T<k3(7_3)$'U0
o7*K%-2jy=<6((Z
$$.9$z) -5HUuM6
:2:YZM-'1:)!Vpy
8x3//Q+Y
8xu +S[f5G*p[
aW Me**!RU(SH(=x]Q
$973TdqUw6
:2\xqpH[H:Pj<6('Z
$$R[(3e J)=3)*/f0
o7$$3)\tZ=yj>*\hP[
aWR-a)ZhJp#*\h;[
aWR- *=<<63(Z
$$RG(*/b:p<5HC:*0
o7$/3)1-PEVp#/%0
o7$29)\hZ$-U#2Z
$$+<5<w.ZYJ+PY
8xPWD:(*/bH)$v,>6
:2<9[2-[u:7=uQ
$9-'Dxq6(EVv5I;hy
8x4p_3)*[10
o7X#+xahZIV+P225PI8
_:DI*p[
aWir[*7[
aWiO=fy=8
_:DM78_-X3225p$8
_:D6*7[
aWida:L
T#mIRA:l
T#mI=AHl
T#o,) -50.+W6
:2'.[5 ) 0
N7+)%f.2wd:Q
59B([/TW0j_2T)*$+b8d87T[:Q0>g8<'<riWV0Z#Z=LOwY<=<Qu)[b3xmE6(<de;'n#M8!$WL;Z
[$#t2:R8uj0dq
HO. T,#;+d2l37DQ
$93py=+3e/1(ox3Q
$9><w_-x('1(==RQ
$92!y=+p3/Z
$$DG((ev:pX8
_:w3PY=++(/1(=X5q
$98Uyb+U3I%(==yQ
$9i(<0%(36
:2>_Jxm[1SL
T# -[bHpiY)$/10
o7**!)1-9<u,y
8xij_vXp2*0
o7'K-UB:7xu4981)L
T#2 )1-pXj)$/10
Z\T;9rX 8UZ![C=2V[
aW%..*P!-lP*\h0[
aW!baSZEV49! EL
T#9-/b)*i;q
$9[*7!J+(/1:L
T#TAwA:z$;3(6
:2:9qp(/1:P[
+90%2l$Y\M<03G67DQ
$9><w_Jxe[F(==RQ
$98Uyh+,>I257E8
_:oA:zJ;+(6
:28_3x(/1:Px8
_:];7YX+HMu10
o7'K-[1:PxJQ
HO. T,#;3CgUV6kI(KX L
T#F6)1-pXjq
$9><w_;x3[*(==RQ
$92!yx+43UZ
$$DG((ev:pX8
_:w3PY=++(/25pJ8
_:w0*7!]Pp*\:;[
aWu)1-s$]py
8xZY=+P)[f0
o7**!)1-)>V,y
8xij_jX3/10
o7'K-UJS5!-Uc6
:2J%q+H/1:TtJ+y
eMDv0%wO[d!/y/+%9p0
o70Y-/B:Px8
_:k#DYJ+P3$257<8
_:*G*p!rPM6
:2 Sq+HI1:P[
aW!--*7!J+(*\:s[
aW!bahZE349!1EL
T#9-/b)9e3q
$9[*7!3h3(Z
$$.h#-/bs*H]q
$9$'yx+p(/Z
$$8z(M2/JzB-uY
8x'j_jX(/1(OXjq
HO. T,#;3CgUV6-j%9P0
o70Y-/B:Px8
_:k#DYJ+P3$257<8
_:*G*p!rPM6
:2 Sq+HI1:P[
aW!--*7!J+(*\:s[
aW!bahZE349!1EL
T#9-/b)9e3q
$9[*7!3h3(Z
$$.h#-/bs*H]q
$9$'yx+p(/Z
$$8z(M2/JzB-uY
8x'j_jX(/1(OXjq
HO. T,#;3CgUV6y4%9P0
o70Y-/B:Px8
_:k#DYJ+P3$257<8
_:*G*p!rPM6
:2 Sq+HI1:P[
aW!--*7!J+(*\:s[
aW!bahZE349!1EL
T#9-/b)9e3q
$9[*7!3h3(Z
$$.h#-/bs*H]q
$9$'yx+p(/Z
$$8z(M2/JzB-uY
8x'j_jX(/1(OXjq
HO. T,#;3CgUV63I(KX L
T#F6)1-pXjq
$9><w_;x3[*(==RQ
$92!yx+43UZ
$$DG((ev:pX8
_:w3PY=++(/25pJ8
_:w0*7!]Pp*\:;[
aWu)1-s$]py
8xZY=+P)[f0
o7**!)1-)>V,y
8xij_jX3/10
o7'K-UJS5!-Uc6
:2J%q+H/1:TtJ+y
e4Z68t2Y
.ENDL STRONG
.LIB WEAK
.prot FREELIB
590IHS<WTWi($dT5:*eIg#D#+nX4T1wW%M6zT8ZQ
59B([/TW0=X('.[ <W.z$M:W=b;;:0eKFrL X5[Y%S7j)<eK2W>(-\T;9r0W,0[\:v]0
N7+)%f.2wd:W93$;89cv+9.\$5D)<Wgz-\T;9r0WsjgU3EuW,0[\:v]28MsWFW0'TY8
<:e2adm#VtJx('.[ <w.Z$m:w=B;;:0EkfRl t9CD+qMDv0%k=uUa5=+3hy2P 5K$z-U4z#G*:V]0
N7\v 9i7/%<;y
eMDv0%w+k;28\tkY
8x;p_3q
$9=hyx8
_:5%*7[
aW'Km*7x8
_:5_*7[
aW'n0*P!Jl#:%t0[
aW'r$>gxq+y
8x;j_-+M: -5[
aW[/a:L
T#F3)10
o70) 51*sx8
_:-8Z\#C2-[z
$$s[TUmp*5[
aW%%0Ayx++('u+;$3Q
$9> /S0((E1:Pbuh3:/0
o7g;<KP*P[
aW%jaYZj;+#*\h7[
aW%nPlyx8
_:kG W_;X('%T*0.P(6
:2[OZ=-/Z
$$s2k0)U-pB-JE*\Hp[
aW%W7*P[
aW%.a:ZxJ+w2uts>8
_:k#u,_-XC:fy70.P(6
:2[*ZMZ)%-5h]h3*\hP[
aW%4=I61q+H2Z
$$s%/-/z
$$s%)-[z
$$y<= 5A:zXjH)ih:*[
aWoY.MJ_Jx(I1tPI]Q
$9PU\-q+H2Z
$$y92()j-p<3H>6
:2V+s+i)10
o7DY [ahZ=-p(IZ
$$y923DA:l
T#;6X%*=X++pife;>8
_:%-'5uQ636
:2VU0((6
:2VU2((6
:2Tdqpy
8x(j1j((e1+*>U3M6
:2T%[f-!1-P=5h>'H0
o7c8 fa:L
T#8<) -7=5)*/*0
o7wp-/B+9>]lP6
:2mbq63*\EL
T#\M)1-)H3,((z
$$g;F-!%-(>v3p6
:2m0s$-!1-P=3+3U%0
o7w[-/Z
$$gSP-!1-S$rH((z
$$gSPf)h-0$vip*\:;[
aW.x%*=x++cSH)Ph8
_:R2Pt,Qi#6
:234\2-!%-0Eul>*\:*[
aWFra:L
T#=f=AHl
T#=U5E*7[
aWFO8zyh+l9!1tL
T#=I)10
o7%MF)10
o7%M+) 0
o7k8-/B)9IJ4#6
:2>*ZM-/Bjsh;Im6
:2>*ZMZ)1-5jV3>UZ
$$\tFUmp*S[
aW+K;*)!V,>22$7$8
_:=_;[%t5-'z
$$#2$ *AHtT-3Y
8xZ3)QuhiU)(0.+E6
:28Mc90%aSL
T# 4BMDv_jq
$9$/yx+j)2V)0[
aW2-04yx+l('uE7[
aW2-04a_Jxe/%);=8
_:]>L>_3XM/%y7[
aW2%8/3S3(3E%t)bJ)*/u0
o7*;!-iA5_3x(/1:P0.+P6
:26YcfFK3*=x+p(SVY5[
aW2Y7*P[
aW2Yc/yx8
_:]64A_jq
$9$U[-<p-[2$5j8
_:]0ax0-(3*\:;[
aW2\=!yx8
_:ypu,_YP3ejH5[
aW;b;*P[
aW<j-' ,[d-/Z
$$%to-sbHpBvP9!1el
T#2;*_*5i8
_:01*S!YP3/j(=X-q
$94;y=<63SZ
$$R[P-2bH(>Y49! :l
T#![)/-)BrPC*\H;[
aWR- *=<<63(Z
$$RG((6
:2\S3(*/Bh0<-Uy
8xmj0Q63eh0
o79);b8d8_;x36
:2<M:[-!1-7j3IP$Z
$$+z$ )hy;iUX36
:2<%H+-/BYPE3Uc6
:2,xqp9!1tL
T#m!=7*S!-4):%(=XUq
$9clyx8
_:DIZY=8
_:DM;'_3q
$9cOH#qUH[J(=x5Q
$9c3y=8
_:DC*p[
aWidi*P[
aWid[*7[
aW7.ahZb<6($Z
$$)*$;XAHl
F#X9k;D$m:[Y
ax-tshV:m_\$04T'=07W##Vt9lud1')=BIL-y<k!N[w>md)fBl)Ss-Phub3t+:'U5G/Su+T%Fx=4[
,W+M7234Z29%Z
->md)f9$ad7*90Bz
$$1j(36
:2g=q+y
8x;5_3q
$9=A>_3+y
8x; _3q
$9=!/_Jxc'*js=8
_:5Iid1j((6
:2g%q6cU%)*$8
_:-1*9!-H(s%(=XUq
$93hyx8
_:-2'GXQ3(6
:2X4\!+W7*7[
aW%5$OwYqUy
8xav9G((e1:pBYL(:j0
o7g;<K3*P!J+([Ft5$VQ
$9> /SD((E1:P>3,#' 0
o7g[-2Bh0=V)*[ 0
o7gdora:L
T#/z%.*S!rH3(*(==jq
$9>!/,q+y
8xaA9t(Mevy7eU)*[10
o7g# )10
o7g8-/B:Pxy4eSH+L
T#/,BC*5!r,M[U(==jq
$9></U2(cEVEs=;)*[10
o7g\']$;yx+hy
8xa3sQ+Y
8xa30QPY
8x t,S$-/b:7J;uE:z
$$y'VrXAHl
T#;<03*p!5q
$9PpJxq4HSVv0E8
_:%-'puQ+Y
8x <%3(3e%y5<-q
$9PpJ=X((6
:2V+sU-!1-7x5l3$Z
$$y92CDA57[
aWod3*P[
aWodg*P[
aW9jahL
T#) 51*p!ju#:*s*[
aW9x=/y3Jx([V:)xRQ
$98<J/q+y
8x</_]XE'/(=XYq
$9,hyx+hw$%E;[
aW.'a570.,y
8x]S_-XMi%H;[
aW.U3*=b++PS vL
T#\9X=*=X++C/1+5=8
_:4_*p[
aW.x *=x+3w:HY;[
aW.x ly=+3)$ vT3Jly
8x]jBQ6(e1))HY4p6
:2309)F)/EL
T#=!=7*0!-PW$%(=XYq
$9ilyx8
_:RIZY=8
_:RM;'_3q
$9iOH#qIHS25PI8
_:RC*p[
aWFdi*P[
aWFd[*7[
aWu.a:Zjy,e' 0
o7k8<da:Zbyl>UJ0
o7k8<dg*P!-le:uYL
T#90-MDv_;q
$9[AD_Vxc2JtTt3hy
8xZ 1G20yAHze;,p[z
$$#2$ *AHtT-3Y
8xZ3)QPh/25pe8
_:=.7>md(>6
:28AZ90%a:L
T#T[)1-($54Miz
$$.0kI)1-*X-3#[z
$$.0kINA:z>juM( 0
o7*/FOahZ<VUmSZ
$$.d#[R>HYB+L(u*Ht3juY
8xiv40=%'A+zJY+Cu25pH8
_:]p7x,GF-!1-5irPEuz
$$.'2-[1:l
T#T;D3*p[
aW2Yc!yx8
_:]0ax03(3*:JS[
aW2b>/Tbqp9!1EL
T#T65G*7!-iW'U0
o7';<dajPxVx>[Z
$$8z*-/z
$$9:y JI;A_jq
$97d'_yxe/%E;0.+#6
:2J8<[-'*0
o7$+-[Bh*xJ39!1jL
T#!') -7BvP3*\:;[
aWR5 *=I+pe$/(==JQ
$94/yj+I([F(==]Q
$94/7_.49! EL
T#!%)\:zXj4)2%s([
aWRK *P!J,>[F:5[
aWRx2*==+hc'FYL
T#y9y07W#Q3h[z
$$+t[t)\:z=vH>(/0
o79K'xahsx3pw6
:2<%H+-!1-9hJjc(Z
$$uj(3*\Hp[
aWiW['yb+h3(%+T3Jjy
8x43_jq
$9cl8_3Q
$9cOg)qpy
8x4>4\(Ce yt3jHY
8x4:_3q
$9c4yx8
_:DCLYX8
_:DCZY=8
_:3#*7!-)*/*0
o74t'Y7*7[
,WH*>>w7T[T6
92Z0g*09.\ 7<O25[UHM\W0jXW//[59Q0l35D)<Wgz-\T;9r0WsjgU3Eu-:09[=%=!Fr\xR9TKL
F# 0XxLh9S)O6
BOwY<=:%[4T,%Wo6
:2X+qpHUH:P0a+36
:2[*T(cE1jP0.pP6
:2TOqpH[ :L
T#[%)1-0Xj+Y
8x7x+QPh/1:p0.+)6
:2H9qUH' +50.pe6
:2309)F) 0
o7k((EuhPh8
_:=AHz=jJE*::p[
aW2f8*P!54w(Z
$$.S(>evy([
aW;ba)Zx3+wI2$Pj8
_:X7*p!j+(*::p[
+90%2l$Y\M<03Gg7DQ
$9><w_JxcSV(==RQ
$98Uyh+,>I257E8
_:oA:zJYJM6
:28_3x(/1:Px8
_:];7YX+HMu10
o7'K-[1:PxJQ
HO. T,#;+d0MX6*Wo6
:2[*T((EHh;0.pP6
:2H9qIH(/+T33,y
8xoYX+3M/10
o7\(3E1:PxJ+y
8xid4Q+h2U)p[
aW;bahPxJ+(6
BOwY<=:% Ga9DSu:1A$Y8
_:--*p!j+(6
:2[*T(mE h(0.pP6
:2TOq+HI )L
T#[%)1-0Xj+Y
8x7x+QPh/1:t3j3Y
8x7/_3X#[v(=X]q
$9m*P!;h#[Z
$$#QPh[jH;[
aW2f8*P!Vl>(Z
$$.S((e :p[
aW;ba)9h-xc'%0
o7s2-/B:Px<_(/Z
->md)f9pH.oz;Q/>2v[
aW[\a:ZxJ+y
8xafmQ3h[ Tt334Y
8x(A_jXp[U0
o7:/-/B+PxJQ
$98/<_3x(/1(=x;Q
$98Uy=+,3I25PE8
_:oA:zJ5,36
:28_3x32 EL
T#TAwA:zHYi#6
:26%q+H[1:L
T#5<)Uy)B+uC'z
$$%S((e1:p0A+(6
BOwY<=:% Ga9DSc$>2V[
aW[\a:ZxJ+y
8xafmQ3h[ Tt334Y
8x(A_jXp[U0
o7:/-/B+PxJQ
$98/<_3x(/1(=x;Q
$98Uy=+,3I25PE8
_:oA:zJ5,36
:28_3x32 EL
T#TAwA:zHYi#6
:26%q+H[1:L
T#5<)Uy)B+uC'z
$$%S((e1:p0A+(6
BOwY<=:% Ga9DSeI>2V[
aW[\a:ZxJ+y
8xafmQ3h[ Tt334Y
8x(A_jXp[U0
o7:/-/B+PxJQ
$98/<_3x(/1(=x;Q
$98Uy=+,3I25PE8
_:oA:zJ5,36
:28_3x32 EL
T#TAwA:zHYi#6
:26%q+H[1:L
T#5<)Uy)B+uC'z
$$%S((e1:p0A+(6
BOwY<=:% Ga9DS3:1A$Y8
_:--*p!j+(6
:2[*T(mE h(0.pP6
:2TOq+HI )L
T#[%)1-0Xj+Y
8x7x+QPh/1:t3j3Y
8x7/_3X#[v(=X]q
$9m*P!;h#[Z
$$#QPh[jH;[
aW2f8*P!Vl>(Z
$$.S((e :p[
aW;ba)9h-xc'%0
o7s2-/B:Px<_(/Z
-\#*50Xz
.ENDL WEAK
